0:0
     RDKit          3D

 33 35  0  0  0  0  0  0  0  0999 V2000
   -3.0367    0.9900   -0.9708 C   0  0  0  0  0  0  0  0  0  0  0  0
   -1.9149    0.0095   -0.7957 C   0  0  0  0  0  0  0  0  0  0  0  0
   -0.8047    0.3912   -0.2402 N   0  0  0  0  0  0  0  0  0  0  0  0
   -0.6045    1.7044    0.2119 N   0  0  0  0  0  0  0  0  0  0  0  0
    0.5108    2.0631    0.7630 C   0  0  0  0  0  0  0  0  0  0  0  0
    1.5578    1.2203    0.9469 N   0  0  0  0  0  0  0  0  0  0  0  0
    2.5871    1.8702    1.5457 C   0  0  0  0  0  0  0  0  0  0  0  0
    3.8076    1.2782    1.8705 C   0  0  0  0  0  0  0  0  0  0  0  0
    4.7918    2.0666    2.4903 C   0  0  0  0  0  0  0  0  0  0  0  0
    4.5470    3.4242    2.7754 C   0  0  0  0  0  0  0  0  0  0  0  0
    3.3152    4.0106    2.4445 C   0  0  0  0  0  0  0  0  0  0  0  0
    2.3566    3.2086    1.8312 C   0  0  0  0  0  0  0  0  0  0  0  0
    0.8112    3.6294    1.3271 S   0  0  0  0  0  0  0  0  0  0  0  0
   -2.0829   -1.3951   -1.2606 C   0  0  0  0  0  0  0  0  0  0  0  0
   -3.2997   -1.7667   -1.8563 C   0  0  0  0  0  0  0  0  0  0  0  0
   -3.5119   -3.0685   -2.3099 C   0  0  0  0  0  0  0  0  0  0  0  0
   -5.1742   -3.5382   -3.1130 Br  0  0  0  0  0  0  0  0  0  0  0  0
   -2.5078   -4.0249   -2.1755 C   0  0  0  0  0  0  0  0  0  0  0  0
   -1.2893   -3.6835   -1.5877 C   0  0  0  0  0  0  0  0  0  0  0  0
    0.0599   -5.0269   -1.4236 Br  0  0  0  0  0  0  0  0  0  0  0  0
   -1.0671   -2.3751   -1.1282 C   0  0  0  0  0  0  0  0  0  0  0  0
    0.1585   -2.0652   -0.5464 O   0  0  0  0  0  0  0  0  0  0  0  0
   -3.4021    1.3093    0.0164 H   0  0  0  0  0  0  0  0  0  0  0  0
   -2.6743    1.8661   -1.5286 H   0  0  0  0  0  0  0  0  0  0  0  0
   -3.8564    0.5136   -1.5286 H   0  0  0  0  0  0  0  0  0  0  0  0
    1.5696    0.2280    0.6711 H   0  0  0  0  0  0  0  0  0  0  0  0
    3.9955    0.2178    1.6464 H   0  0  0  0  0  0  0  0  0  0  0  0
    5.7616    1.6199    2.7550 H   0  0  0  0  0  0  0  0  0  0  0  0
    5.3268    4.0293    3.2609 H   0  0  0  0  0  0  0  0  0  0  0  0
    3.1138    5.0698    2.6628 H   0  0  0  0  0  0  0  0  0  0  0  0
   -4.0985   -1.0186   -1.9668 H   0  0  0  0  0  0  0  0  0  0  0  0
   -2.6760   -5.0513   -2.5336 H   0  0  0  0  0  0  0  0  0  0  0  0
    0.3322   -1.1479   -0.2170 H   0  0  0  0  0  0  0  0  0  0  0  0
  1  2  1  0
  2  3  2  3
  3  4  1  0
  4  5  2  3
  5  6  1  0
  6  7  1  0
  7  8  2  0
  8  9  1  0
  9 10  2  0
 10 11  1  0
 11 12  2  0
 12 13  1  0
  2 14  1  0
 14 15  2  0
 15 16  1  0
 16 17  1  0
 16 18  2  0
 18 19  1  0
 19 20  1  0
 19 21  2  0
 21 22  1  0
 13  5  1  0
 21 14  1  0
 12  7  1  0
  1 23  1  0
  1 24  1  0
  1 25  1  0
  6 26  1  0
  8 27  1  0
  9 28  1  0
 10 29  1  0
 11 30  1  0
 15 31  1  0
 18 32  1  0
 22 33  1  0
M  END
>  <ligand_id>  (1) 
0

>  <original_smiles>  (1) 
CC(=NN=c1[nH]c2ccccc2s1)c1cc(Br)cc(Br)c1O

>  <smiles>  (1) 
CC(=NN=c1[nH]c2ccccc2s1)c1cc(Br)cc(Br)c1O

$$$$
1:0
     RDKit          3D

111112  0  0  0  0  0  0  0  0999 V2000
   -1.4563    4.3238    4.3389 C   0  0  0  0  0  0  0  0  0  0  0  0
   -0.1419    3.6262    4.6306 C   0  0  0  0  0  0  0  0  0  0  0  0
    0.3595    2.9063    3.3869 C   0  0  0  0  0  0  0  0  0  0  0  0
    1.8676    3.0739    3.3313 C   0  0  0  0  0  0  0  0  0  0  0  0
   -0.0172    1.4154    3.4055 C   0  0  0  0  0  0  0  0  0  0  0  0
    0.4885    0.7367    2.2187 N   0  0  0  0  0  0  0  0  0  0  0  0
    1.7008   -0.0233    2.2144 C   0  0  0  0  0  0  0  0  0  0  0  0
    2.4237   -0.0727    3.2449 O   0  0  0  0  0  0  0  0  0  0  0  0
    2.0890   -0.8292    1.0095 C   0  0  0  0  0  0  0  0  0  0  0  0
    1.6896   -0.1651   -0.3053 C   0  0  0  0  0  0  0  0  0  0  0  0
    2.4895    1.1054   -0.5729 C   0  0  0  0  0  0  0  0  0  0  0  0
    3.7818    0.7821   -1.2588 C   0  0  0  0  0  0  0  0  0  0  0  0
    4.9454    0.5617   -0.5147 C   0  0  0  0  0  0  0  0  0  0  0  0
    6.1407    0.2448   -1.1673 C   0  0  0  0  0  0  0  0  0  0  0  0
    6.1723    0.1432   -2.5622 C   0  0  0  0  0  0  0  0  0  0  0  0
    7.6683   -0.2609   -3.3753 Cl  0  0  0  0  0  0  0  0  0  0  0  0
    5.0086    0.3576   -3.3075 C   0  0  0  0  0  0  0  0  0  0  0  0
    3.8159    0.6864   -2.6576 C   0  0  0  0  0  0  0  0  0  0  0  0
    2.5550    0.8725   -3.4370 C   0  0  0  0  0  0  0  0  0  0  0  0
    1.7113    2.0136   -2.8601 C   0  0  0  0  0  0  0  0  0  0  0  0
    1.6815    2.0184   -1.3894 N   0  0  0  0  0  0  0  0  0  0  0  0
    0.7252    2.8449   -0.7232 C   0  0  0  0  0  0  0  0  0  0  0  0
    1.0760    3.5088    0.2891 O   0  0  0  0  0  0  0  0  0  0  0  0
   -0.7149    2.7903   -1.1411 C   0  0  0  0  0  0  0  0  0  0  0  0
   -1.4938    4.0744   -0.8362 C   0  0  0  0  0  0  0  0  0  0  0  0
   -1.7429    4.2615    0.6561 C   0  0  0  0  0  0  0  0  0  0  0  0
   -2.7080    5.4102    0.8948 C   0  0  0  0  0  0  0  0  0  0  0  0
   -4.1335    5.0029    0.5564 C   0  0  0  0  0  0  0  0  0  0  0  0
   -4.6236    4.0456    1.5332 N   0  0  0  0  0  0  0  0  0  0  0  0
   -1.3509    1.6242   -0.5399 N   0  0  0  0  0  0  0  0  0  0  0  0
   -2.5858    1.0779   -1.0016 C   0  0  0  0  0  0  0  0  0  0  0  0
   -3.1850    1.6004   -1.9812 O   0  0  0  0  0  0  0  0  0  0  0  0
   -3.1124   -0.0463   -0.3524 O   0  0  0  0  0  0  0  0  0  0  0  0
   -4.3397   -0.6883   -0.7028 C   0  0  0  0  0  0  0  0  0  0  0  0
   -5.5085    0.2693   -0.5482 C   0  0  0  0  0  0  0  0  0  0  0  0
   -4.2868   -1.2106   -2.1280 C   0  0  0  0  0  0  0  0  0  0  0  0
   -4.5542   -1.8616    0.2295 C   0  0  0  0  0  0  0  0  0  0  0  0
    1.5296   -2.1771    1.0875 N   0  0  0  0  0  0  0  0  0  0  0  0
    0.1296   -2.4805    1.0437 C   0  0  0  0  0  0  0  0  0  0  0  0
   -0.7255   -1.5567    0.9672 O   0  0  0  0  0  0  0  0  0  0  0  0
   -0.3096   -3.9109    1.0180 C   0  0  0  0  0  0  0  0  0  0  0  0
   -1.5085   -4.1021    1.8198 N   0  0  0  0  0  0  0  0  0  0  0  0
   -0.5256   -4.4078   -0.4099 C   0  0  0  0  0  0  0  0  0  0  0  0
   -1.6242   -3.6334   -1.1298 C   0  0  0  0  0  0  0  0  0  0  0  0
   -1.6362   -3.9705   -2.6133 C   0  0  0  0  0  0  0  0  0  0  0  0
   -0.3959   -3.5458   -3.2564 N   0  0  0  0  0  0  0  0  0  0  0  0
   -0.0800   -2.3066   -3.4785 C   0  0  0  0  0  0  0  0  0  0  0  0
   -0.9533   -1.2438   -3.1023 N   0  0  0  0  0  0  0  0  0  0  0  0
    1.1560   -2.0040   -4.1126 N   0  0  0  0  0  0  0  0  0  0  0  0
   -1.4983    1.2107    3.4827 C   0  0  0  0  0  0  0  0  0  0  0  0
   -2.0640    0.5910    4.6310 N   0  0  0  0  0  0  0  0  0  0  0  0
   -2.2470    1.5816    2.5401 O   0  0  0  0  0  0  0  0  0  0  0  0
   -1.9503    4.5860    5.2860 H   0  0  0  0  0  0  0  0  0  0  0  0
   -1.2649    5.2390    3.7595 H   0  0  0  0  0  0  0  0  0  0  0  0
   -2.1070    3.6524    3.7595 H   0  0  0  0  0  0  0  0  0  0  0  0
    0.6034    4.3721    4.9437 H   0  0  0  0  0  0  0  0  0  0  0  0
   -0.2972    2.8899    5.4329 H   0  0  0  0  0  0  0  0  0  0  0  0
   -0.1124    3.3413    2.4935 H   0  0  0  0  0  0  0  0  0  0  0  0
    2.2695    3.1185    4.3542 H   0  0  0  0  0  0  0  0  0  0  0  0
    2.3121    2.2196    2.7996 H   0  0  0  0  0  0  0  0  0  0  0  0
    2.1137    4.0049    2.7996 H   0  0  0  0  0  0  0  0  0  0  0  0
    0.4453    0.9879    4.3074 H   0  0  0  0  0  0  0  0  0  0  0  0
   -0.0510    0.8073    1.3441 H   0  0  0  0  0  0  0  0  0  0  0  0
    3.1873   -0.8899    1.0157 H   0  0  0  0  0  0  0  0  0  0  0  0
    1.8642   -0.8740   -1.1281 H   0  0  0  0  0  0  0  0  0  0  0  0
    0.6273    0.1120   -0.2356 H   0  0  0  0  0  0  0  0  0  0  0  0
    2.7320    1.5919    0.3834 H   0  0  0  0  0  0  0  0  0  0  0  0
    4.9202    0.6376    0.5824 H   0  0  0  0  0  0  0  0  0  0  0  0
    7.0573    0.0752   -0.5832 H   0  0  0  0  0  0  0  0  0  0  0  0
    5.0319    0.2675   -4.4036 H   0  0  0  0  0  0  0  0  0  0  0  0
    2.8098    1.1068   -4.4811 H   0  0  0  0  0  0  0  0  0  0  0  0
    1.9697   -0.0571   -3.3802 H   0  0  0  0  0  0  0  0  0  0  0  0
    2.1314    2.9697   -3.2056 H   0  0  0  0  0  0  0  0  0  0  0  0
    0.6785    1.8691   -3.2101 H   0  0  0  0  0  0  0  0  0  0  0  0
   -0.7339    2.6985   -2.2371 H   0  0  0  0  0  0  0  0  0  0  0  0
   -0.9175    4.9342   -1.2088 H   0  0  0  0  0  0  0  0  0  0  0  0
   -2.4722    3.9997   -1.3332 H   0  0  0  0  0  0  0  0  0  0  0  0
   -2.1712    3.3368    1.0702 H   0  0  0  0  0  0  0  0  0  0  0  0
   -0.7873    4.4913    1.1501 H   0  0  0  0  0  0  0  0  0  0  0  0
   -2.6600    5.7064    1.9530 H   0  0  0  0  0  0  0  0  0  0  0  0
   -2.4201    6.2506    0.2461 H   0  0  0  0  0  0  0  0  0  0  0  0
   -4.7784    5.8940    0.5648 H   0  0  0  0  0  0  0  0  0  0  0  0
   -4.1488    4.5397   -0.4412 H   0  0  0  0  0  0  0  0  0  0  0  0
   -4.4419    4.4005    2.4829 H   0  0  0  0  0  0  0  0  0  0  0  0
   -5.6368    3.9120    1.4046 H   0  0  0  0  0  0  0  0  0  0  0  0
   -0.8849    1.1713    0.2592 H   0  0  0  0  0  0  0  0  0  0  0  0
   -5.7090    0.4335    0.5208 H   0  0  0  0  0  0  0  0  0  0  0  0
   -5.2623    1.2286   -1.0267 H   0  0  0  0  0  0  0  0  0  0  0  0
   -6.4007   -0.1609   -1.0267 H   0  0  0  0  0  0  0  0  0  0  0  0
   -4.1759   -2.3049   -2.1136 H   0  0  0  0  0  0  0  0  0  0  0  0
   -5.2167   -0.9431   -2.6513 H   0  0  0  0  0  0  0  0  0  0  0  0
   -3.4295   -0.7620   -2.6513 H   0  0  0  0  0  0  0  0  0  0  0  0
   -4.4913   -1.5175    1.2724 H   0  0  0  0  0  0  0  0  0  0  0  0
   -5.5471   -2.2984    0.0467 H   0  0  0  0  0  0  0  0  0  0  0  0
   -3.7801   -2.6214    0.0467 H   0  0  0  0  0  0  0  0  0  0  0  0
    2.1876   -2.9640    1.1806 H   0  0  0  0  0  0  0  0  0  0  0  0
    0.4993   -4.5116    1.4594 H   0  0  0  0  0  0  0  0  0  0  0  0
   -1.2630   -4.0630    2.8193 H   0  0  0  0  0  0  0  0  0  0  0  0
   -2.1882   -3.3589    1.6038 H   0  0  0  0  0  0  0  0  0  0  0  0
    0.4139   -4.2935   -0.9706 H   0  0  0  0  0  0  0  0  0  0  0  0
   -0.8349   -5.4621   -0.3571 H   0  0  0  0  0  0  0  0  0  0  0  0
   -2.5982   -3.8970   -0.6917 H   0  0  0  0  0  0  0  0  0  0  0  0
   -1.4322   -2.5566   -1.0134 H   0  0  0  0  0  0  0  0  0  0  0  0
   -1.7501   -5.0579   -2.7342 H   0  0  0  0  0  0  0  0  0  0  0  0
   -2.4758   -3.4402   -3.0864 H   0  0  0  0  0  0  0  0  0  0  0  0
   -0.6848   -0.2667   -3.2870 H   0  0  0  0  0  0  0  0  0  0  0  0
   -1.8526   -1.4533   -2.6458 H   0  0  0  0  0  0  0  0  0  0  0  0
    1.4158   -1.0237   -4.2932 H   0  0  0  0  0  0  0  0  0  0  0  0
    1.7917   -2.7649   -4.3913 H   0  0  0  0  0  0  0  0  0  0  0  0
   -3.0823    0.4476    4.6899 H   0  0  0  0  0  0  0  0  0  0  0  0
   -1.4554    0.2857    5.4039 H   0  0  0  0  0  0  0  0  0  0  0  0
  1  2  1  0
  2  3  1  0
  3  4  1  0
  3  5  1  0
  5  6  1  0
  6  7  1  0
  7  8  2  0
  7  9  1  0
  9 10  1  0
 10 11  1  0
 11 12  1  0
 12 13  2  0
 13 14  1  0
 14 15  2  0
 15 16  1  0
 15 17  1  0
 17 18  2  0
 18 19  1  0
 19 20  1  0
 20 21  1  0
 21 22  1  0
 22 23  2  0
 22 24  1  0
 24 25  1  0
 25 26  1  0
 26 27  1  0
 27 28  1  0
 28 29  1  0
 24 30  1  0
 30 31  1  0
 31 32  2  0
 31 33  1  0
 33 34  1  0
 34 35  1  0
 34 36  1  0
 34 37  1  0
  9 38  1  0
 38 39  1  0
 39 40  2  0
 39 41  1  0
 41 42  1  0
 41 43  1  0
 43 44  1  0
 44 45  1  0
 45 46  1  0
 46 47  2  3
 47 48  1  0
 47 49  1  0
  5 50  1  0
 50 51  1  0
 50 52  2  0
 21 11  1  0
 18 12  1  0
  1 53  1  0
  1 54  1  0
  1 55  1  0
  2 56  1  0
  2 57  1  0
  3 58  1  0
  4 59  1  0
  4 60  1  0
  4 61  1  0
  5 62  1  0
  6 63  1  0
  9 64  1  0
 10 65  1  0
 10 66  1  0
 11 67  1  0
 13 68  1  0
 14 69  1  0
 17 70  1  0
 19 71  1  0
 19 72  1  0
 20 73  1  0
 20 74  1  0
 24 75  1  0
 25 76  1  0
 25 77  1  0
 26 78  1  0
 26 79  1  0
 27 80  1  0
 27 81  1  0
 28 82  1  0
 28 83  1  0
 29 84  1  0
 29 85  1  0
 30 86  1  0
 35 87  1  0
 35 88  1  0
 35 89  1  0
 36 90  1  0
 36 91  1  0
 36 92  1  0
 37 93  1  0
 37 94  1  0
 37 95  1  0
 38 96  1  0
 41 97  1  0
 42 98  1  0
 42 99  1  0
 43100  1  0
 43101  1  0
 44102  1  0
 44103  1  0
 45104  1  0
 45105  1  0
 48106  1  0
 48107  1  0
 49108  1  0
 49109  1  0
 51110  1  0
 51111  1  0
M  END
>  <ligand_id>  (2) 
1

>  <original_smiles>  (2) 
CCC(C)C(NC(=O)C(CC1c2ccc(Cl)cc2CCN1C(=O)C(CCCCN)NC(=O)OC(C)(C)C)NC(=O)C(N)CCCN=C(N)N)C(N)=O

>  <smiles>  (2) 
CCC(C)C(NC(=O)C(CC1c2ccc(Cl)cc2CCN1C(=O)C(CCCCN)NC(=O)OC(C)(C)C)NC(=O)C(N)CCCN=C(N)N)C(N)=O

$$$$
2:0
     RDKit          3D

 28 30  0  0  0  0  0  0  0  0999 V2000
    0.0155    3.3712    1.8536 Br  0  0  0  0  0  0  0  0  0  0  0  0
    0.0293    1.8042    2.9568 C   0  0  0  0  0  0  0  0  0  0  0  0
   -0.1402    2.0115    4.3303 C   0  0  0  0  0  0  0  0  0  0  0  0
   -0.1464    0.9354    5.2181 C   0  0  0  0  0  0  0  0  0  0  0  0
    0.0172   -0.3626    4.7378 C   0  0  0  0  0  0  0  0  0  0  0  0
    0.1871   -0.5827    3.3702 C   0  0  0  0  0  0  0  0  0  0  0  0
    0.1967    0.4870    2.4594 C   0  0  0  0  0  0  0  0  0  0  0  0
    0.3821    0.1799    1.0207 C   0  0  0  0  0  0  0  0  0  0  0  0
    0.5425   -1.0909    0.4906 C   0  0  0  0  0  0  0  0  0  0  0  0
    0.6845   -0.9122   -0.8748 C   0  0  0  0  0  0  0  0  0  0  0  0
    0.5892    0.4524   -1.0779 C   0  0  0  0  0  0  0  0  0  0  0  0
    0.7228    1.1682   -2.3588 C   0  0  0  0  0  0  0  0  0  0  0  0
    0.4831    0.6678   -3.5373 N   0  0  0  0  0  0  0  0  0  0  0  0
   -0.0949   -0.5893   -3.7855 N   0  0  0  0  0  0  0  0  0  0  0  0
    0.1402   -1.3497   -4.8648 C   0  0  0  0  0  0  0  0  0  0  0  0
   -0.7442   -2.3649   -4.8987 N   0  0  0  0  0  0  0  0  0  0  0  0
   -1.5633   -2.2200   -3.8658 N   0  0  0  0  0  0  0  0  0  0  0  0
   -1.1831   -1.1154   -3.1964 C   0  0  0  0  0  0  0  0  0  0  0  0
    0.4219    1.0718    0.0624 O   0  0  0  0  0  0  0  0  0  0  0  0
   -0.2699    3.0342    4.7141 H   0  0  0  0  0  0  0  0  0  0  0  0
   -0.2803    1.1112    6.2957 H   0  0  0  0  0  0  0  0  0  0  0  0
    0.0125   -1.2127    5.4359 H   0  0  0  0  0  0  0  0  0  0  0  0
    0.3155   -1.6103    2.9993 H   0  0  0  0  0  0  0  0  0  0  0  0
    0.5545   -2.0434    1.0407 H   0  0  0  0  0  0  0  0  0  0  0  0
    0.8402   -1.6905   -1.6365 H   0  0  0  0  0  0  0  0  0  0  0  0
    1.0537    2.2164   -2.3161 H   0  0  0  0  0  0  0  0  0  0  0  0
    0.9324   -1.1720   -5.6070 H   0  0  0  0  0  0  0  0  0  0  0  0
   -1.6845   -0.7071   -2.3065 H   0  0  0  0  0  0  0  0  0  0  0  0
  1  2  1  0
  2  3  2  0
  3  4  1  0
  4  5  2  0
  5  6  1  0
  6  7  2  0
  7  8  1  0
  8  9  2  0
  9 10  1  0
 10 11  2  0
 11 12  1  0
 12 13  2  3
 13 14  1  0
 14 15  1  0
 15 16  2  0
 16 17  1  0
 17 18  2  0
 11 19  1  0
  7  2  1  0
 19  8  1  0
 18 14  1  0
  3 20  1  0
  4 21  1  0
  5 22  1  0
  6 23  1  0
  9 24  1  0
 10 25  1  0
 12 26  1  0
 15 27  1  0
 18 28  1  0
M  END
>  <ligand_id>  (3) 
2

>  <original_smiles>  (3) 
Brc1ccccc1-c1ccc(C=Nn2cnnc2)o1

>  <smiles>  (3) 
Brc1ccccc1-c1ccc(C=Nn2cnnc2)o1

$$$$
3:0
     RDKit          3D

 88 87  0  0  0  0  0  0  0  0999 V2000
   -3.7531   -1.6017    2.4115 C   0  0  0  0  0  0  0  0  0  0  0  0
   -2.4660   -1.2984    2.2848 C   0  0  0  0  0  0  0  0  0  0  0  0
   -1.6147   -1.1167    3.5024 C   0  0  0  0  0  0  0  0  0  0  0  0
   -0.1648   -0.7424    3.1641 C   0  0  0  0  0  0  0  0  0  0  0  0
   -0.0542    0.6565    2.6325 C   0  0  0  0  0  0  0  0  0  0  0  0
   -0.6982    1.0034    1.6052 O   0  0  0  0  0  0  0  0  0  0  0  0
    0.8195    1.5799    3.2854 N   0  0  0  0  0  0  0  0  0  0  0  0
    1.0907    2.9182    2.7784 C   0  0  0  0  0  0  0  0  0  0  0  0
    2.0368    2.8478    1.5929 C   0  0  0  0  0  0  0  0  0  0  0  0
    1.2533    2.9747    0.2991 C   0  0  0  0  0  0  0  0  0  0  0  0
    2.0721    2.6227   -0.8083 O   0  0  0  0  0  0  0  0  0  0  0  0
    2.3424    1.2923   -1.1378 C   0  0  0  0  0  0  0  0  0  0  0  0
    1.8644    0.3481   -0.4539 O   0  0  0  0  0  0  0  0  0  0  0  0
    3.1687    0.9801   -2.3366 C   0  0  0  0  0  0  0  0  0  0  0  0
    2.3193    1.0563   -3.5918 C   0  0  0  0  0  0  0  0  0  0  0  0
    2.2885    2.4800   -4.1151 C   0  0  0  0  0  0  0  0  0  0  0  0
    1.2821    2.5854   -5.2153 C   0  0  0  0  0  0  0  0  0  0  0  0
    0.0994    3.1947   -5.0638 C   0  0  0  0  0  0  0  0  0  0  0  0
   -0.3406    3.8530   -3.7872 C   0  0  0  0  0  0  0  0  0  0  0  0
   -0.6876    2.8480   -2.7350 C   0  0  0  0  0  0  0  0  0  0  0  0
   -1.7727    2.0822   -2.8466 C   0  0  0  0  0  0  0  0  0  0  0  0
   -2.1171    1.0879   -1.7876 C   0  0  0  0  0  0  0  0  0  0  0  0
   -1.1717   -0.0654   -1.8213 C   0  0  0  0  0  0  0  0  0  0  0  0
   -1.3062   -1.0522   -0.9396 C   0  0  0  0  0  0  0  0  0  0  0  0
   -0.3772   -2.2241   -0.9418 C   0  0  0  0  0  0  0  0  0  0  0  0
   -0.6242   -3.1234   -2.1177 C   0  0  0  0  0  0  0  0  0  0  0  0
   -1.7164   -3.8880   -2.2540 C   0  0  0  0  0  0  0  0  0  0  0  0
   -2.8261   -3.9422   -1.2485 C   0  0  0  0  0  0  0  0  0  0  0  0
   -2.4156   -4.7621   -0.0403 C   0  0  0  0  0  0  0  0  0  0  0  0
   -3.5984   -4.8879    0.9011 C   0  0  0  0  0  0  0  0  0  0  0  0
   -3.2384   -5.7503    2.0968 C   0  0  0  0  0  0  0  0  0  0  0  0
   -2.4330   -4.9508    3.1022 C   0  0  0  0  0  0  0  0  0  0  0  0
    0.5365   -1.7608    2.2564 C   0  0  0  0  0  0  0  0  0  0  0  0
    1.8585   -1.3684    2.0322 O   0  0  0  0  0  0  0  0  0  0  0  0
    0.5277   -3.1472    2.8879 C   0  0  0  0  0  0  0  0  0  0  0  0
    0.7895   -4.2214    1.8449 C   0  0  0  0  0  0  0  0  0  0  0  0
    2.1319   -4.2086    1.4655 O   0  0  0  0  0  0  0  0  0  0  0  0
   -4.3775   -1.7350    1.5158 H   0  0  0  0  0  0  0  0  0  0  0  0
   -4.1944   -1.7197    3.4121 H   0  0  0  0  0  0  0  0  0  0  0  0
   -2.0253   -1.1806    1.2838 H   0  0  0  0  0  0  0  0  0  0  0  0
   -2.0496   -0.3163    4.1190 H   0  0  0  0  0  0  0  0  0  0  0  0
   -1.5925   -2.0776    4.0373 H   0  0  0  0  0  0  0  0  0  0  0  0
    0.3796   -0.7747    4.1195 H   0  0  0  0  0  0  0  0  0  0  0  0
    1.2803    1.2844    4.1579 H   0  0  0  0  0  0  0  0  0  0  0  0
    0.1463    3.3855    2.4625 H   0  0  0  0  0  0  0  0  0  0  0  0
    1.5573    3.5162    3.5751 H   0  0  0  0  0  0  0  0  0  0  0  0
    2.7666    3.6681    1.6594 H   0  0  0  0  0  0  0  0  0  0  0  0
    2.5618    1.8813    1.6052 H   0  0  0  0  0  0  0  0  0  0  0  0
    0.3824    2.3037    0.3346 H   0  0  0  0  0  0  0  0  0  0  0  0
    0.9206    4.0167    0.1822 H   0  0  0  0  0  0  0  0  0  0  0  0
    3.9917    1.7063   -2.4100 H   0  0  0  0  0  0  0  0  0  0  0  0
    3.5742   -0.0377   -2.2384 H   0  0  0  0  0  0  0  0  0  0  0  0
    2.7461    0.3953   -4.3605 H   0  0  0  0  0  0  0  0  0  0  0  0
    1.2938    0.7386   -3.3522 H   0  0  0  0  0  0  0  0  0  0  0  0
    2.0129    3.1644   -3.2993 H   0  0  0  0  0  0  0  0  0  0  0  0
    3.2826    2.7502   -4.5007 H   0  0  0  0  0  0  0  0  0  0  0  0
    1.5238    2.1429   -6.1929 H   0  0  0  0  0  0  0  0  0  0  0  0
   -0.5884    3.2142   -5.9220 H   0  0  0  0  0  0  0  0  0  0  0  0
    0.4754    4.4902   -3.4156 H   0  0  0  0  0  0  0  0  0  0  0  0
   -1.2405    4.4480   -4.0018 H   0  0  0  0  0  0  0  0  0  0  0  0
   -0.0367    2.7392   -1.8549 H   0  0  0  0  0  0  0  0  0  0  0  0
   -2.4218    2.1840   -3.7288 H   0  0  0  0  0  0  0  0  0  0  0  0
   -2.0588    1.5742   -0.8027 H   0  0  0  0  0  0  0  0  0  0  0  0
   -3.1362    0.7158   -1.9692 H   0  0  0  0  0  0  0  0  0  0  0  0
   -0.3677   -0.0997   -2.5713 H   0  0  0  0  0  0  0  0  0  0  0  0
   -2.1151   -1.0053   -0.1955 H   0  0  0  0  0  0  0  0  0  0  0  0
    0.6591   -1.8579   -0.9841 H   0  0  0  0  0  0  0  0  0  0  0  0
   -0.5524   -2.8034   -0.0233 H   0  0  0  0  0  0  0  0  0  0  0  0
    0.1348   -3.1569   -2.9132 H   0  0  0  0  0  0  0  0  0  0  0  0
   -1.8032   -4.5117   -3.1560 H   0  0  0  0  0  0  0  0  0  0  0  0
   -3.0702   -2.9196   -0.9249 H   0  0  0  0  0  0  0  0  0  0  0  0
   -3.7031   -4.4147   -1.7150 H   0  0  0  0  0  0  0  0  0  0  0  0
   -2.0963   -5.7631   -0.3660 H   0  0  0  0  0  0  0  0  0  0  0  0
   -1.5817   -4.2658    0.4777 H   0  0  0  0  0  0  0  0  0  0  0  0
   -3.8898   -3.8868    1.2517 H   0  0  0  0  0  0  0  0  0  0  0  0
   -4.4332   -5.3593    0.3616 H   0  0  0  0  0  0  0  0  0  0  0  0
   -4.1612   -6.1097    2.5754 H   0  0  0  0  0  0  0  0  0  0  0  0
   -2.6341   -6.6026    1.7527 H   0  0  0  0  0  0  0  0  0  0  0  0
   -2.7263   -5.2420    4.1216 H   0  0  0  0  0  0  0  0  0  0  0  0
   -1.3614   -5.1526    2.9572 H   0  0  0  0  0  0  0  0  0  0  0  0
   -2.6269   -3.8778    2.9572 H   0  0  0  0  0  0  0  0  0  0  0  0
   -0.0089   -1.8000    1.3020 H   0  0  0  0  0  0  0  0  0  0  0  0
    2.3144   -1.2331    2.9005 H   0  0  0  0  0  0  0  0  0  0  0  0
    1.3103   -3.1962    3.6593 H   0  0  0  0  0  0  0  0  0  0  0  0
   -0.4628   -3.3239    3.3325 H   0  0  0  0  0  0  0  0  0  0  0  0
    0.5409   -5.2061    2.2674 H   0  0  0  0  0  0  0  0  0  0  0  0
    0.1653   -4.0229    0.9612 H   0  0  0  0  0  0  0  0  0  0  0  0
    2.7033   -4.2031    2.2739 H   0  0  0  0  0  0  0  0  0  0  0  0
  1  2  2  3
  2  3  1  0
  3  4  1  0
  4  5  1  0
  5  6  2  0
  5  7  1  0
  7  8  1  0
  8  9  1  0
  9 10  1  0
 10 11  1  0
 11 12  1  0
 12 13  2  0
 12 14  1  0
 14 15  1  0
 15 16  1  0
 16 17  1  0
 17 18  2  3
 18 19  1  0
 19 20  1  0
 20 21  2  3
 21 22  1  0
 22 23  1  0
 23 24  2  3
 24 25  1  0
 25 26  1  0
 26 27  2  3
 27 28  1  0
 28 29  1  0
 29 30  1  0
 30 31  1  0
 31 32  1  0
  4 33  1  0
 33 34  1  0
 33 35  1  0
 35 36  1  0
 36 37  1  0
  1 38  1  0
  1 39  1  0
  2 40  1  0
  3 41  1  0
  3 42  1  0
  4 43  1  0
  7 44  1  0
  8 45  1  0
  8 46  1  0
  9 47  1  0
  9 48  1  0
 10 49  1  0
 10 50  1  0
 14 51  1  0
 14 52  1  0
 15 53  1  0
 15 54  1  0
 16 55  1  0
 16 56  1  0
 17 57  1  0
 18 58  1  0
 19 59  1  0
 19 60  1  0
 20 61  1  0
 21 62  1  0
 22 63  1  0
 22 64  1  0
 23 65  1  0
 24 66  1  0
 25 67  1  0
 25 68  1  0
 26 69  1  0
 27 70  1  0
 28 71  1  0
 28 72  1  0
 29 73  1  0
 29 74  1  0
 30 75  1  0
 30 76  1  0
 31 77  1  0
 31 78  1  0
 32 79  1  0
 32 80  1  0
 32 81  1  0
 33 82  1  0
 34 83  1  0
 35 84  1  0
 35 85  1  0
 36 86  1  0
 36 87  1  0
 37 88  1  0
M  END
>  <ligand_id>  (4) 
3

>  <original_smiles>  (4) 
C=CCC(C(=O)NCCCOC(=O)CCCC=CCC=CCC=CCC=CCCCCC)C(O)CCO

>  <smiles>  (4) 
C=CCC(C(=O)NCCCOC(=O)CCCC=CCC=CCC=CCC=CCCCCC)C(O)CCO

$$$$
4:0
     RDKit          3D

 38 40  0  0  0  0  0  0  0  0999 V2000
   -4.5701    0.4901    4.5060 C   0  0  0  0  0  0  0  0  0  0  0  0
   -4.4157    0.5361    3.0941 O   0  0  0  0  0  0  0  0  0  0  0  0
   -3.2132    0.8919    2.4774 C   0  0  0  0  0  0  0  0  0  0  0  0
   -3.1483    0.9106    1.0799 C   0  0  0  0  0  0  0  0  0  0  0  0
   -1.9603    1.2631    0.4331 C   0  0  0  0  0  0  0  0  0  0  0  0
   -0.8292    1.6045    1.1813 C   0  0  0  0  0  0  0  0  0  0  0  0
    0.4462    1.9529    0.4918 C   0  0  0  0  0  0  0  0  0  0  0  0
    1.2352    0.7520    0.2535 N   0  0  0  0  0  0  0  0  0  0  0  0
    2.0548    0.1366    1.1415 C   0  0  0  0  0  0  0  0  0  0  0  0
    2.6092   -0.9987    0.6349 N   0  0  0  0  0  0  0  0  0  0  0  0
    2.0910   -1.0656   -0.6073 C   0  0  0  0  0  0  0  0  0  0  0  0
    1.2656   -0.0224   -0.8405 C   0  0  0  0  0  0  0  0  0  0  0  0
    0.6177    0.1034   -2.0635 C   0  0  0  0  0  0  0  0  0  0  0  0
   -0.1492    1.0785   -2.2932 O   0  0  0  0  0  0  0  0  0  0  0  0
    0.8424   -0.8629   -3.0122 N   0  0  0  0  0  0  0  0  0  0  0  0
    0.1788   -0.7661   -4.3087 C   0  0  0  0  0  0  0  0  0  0  0  0
    1.6888   -1.9230   -2.7536 C   0  0  0  0  0  0  0  0  0  0  0  0
    1.8839   -2.8034   -3.6386 O   0  0  0  0  0  0  0  0  0  0  0  0
    2.3215   -2.0268   -1.5376 N   0  0  0  0  0  0  0  0  0  0  0  0
    3.2179   -3.1378   -1.2432 C   0  0  0  0  0  0  0  0  0  0  0  0
   -0.8846    1.5807    2.5783 C   0  0  0  0  0  0  0  0  0  0  0  0
   -2.0725    1.2284    3.2252 C   0  0  0  0  0  0  0  0  0  0  0  0
   -3.6224    0.7726    4.9879 H   0  0  0  0  0  0  0  0  0  0  0  0
   -5.3602    1.1917    4.8116 H   0  0  0  0  0  0  0  0  0  0  0  0
   -4.8470   -0.5297    4.8116 H   0  0  0  0  0  0  0  0  0  0  0  0
   -4.0366    0.6466    0.4873 H   0  0  0  0  0  0  0  0  0  0  0  0
   -1.9151    1.2719   -0.6660 H   0  0  0  0  0  0  0  0  0  0  0  0
    0.2189    2.4348   -0.4705 H   0  0  0  0  0  0  0  0  0  0  0  0
    1.0224    2.6394    1.1296 H   0  0  0  0  0  0  0  0  0  0  0  0
    2.2497    0.5125    2.1567 H   0  0  0  0  0  0  0  0  0  0  0  0
   -0.8994   -0.6088   -4.1579 H   0  0  0  0  0  0  0  0  0  0  0  0
    0.5975    0.0805   -4.8726 H   0  0  0  0  0  0  0  0  0  0  0  0
    0.3382   -1.6970   -4.8726 H   0  0  0  0  0  0  0  0  0  0  0  0
    3.3119   -3.2543   -0.1535 H   0  0  0  0  0  0  0  0  0  0  0  0
    2.8102   -4.0628   -1.6770 H   0  0  0  0  0  0  0  0  0  0  0  0
    4.2081   -2.9348   -1.6770 H   0  0  0  0  0  0  0  0  0  0  0  0
    0.0069    1.8394    3.1684 H   0  0  0  0  0  0  0  0  0  0  0  0
   -2.1143    1.2145    4.3243 H   0  0  0  0  0  0  0  0  0  0  0  0
  1  2  1  0
  2  3  1  0
  3  4  2  0
  4  5  1  0
  5  6  2  0
  6  7  1  0
  7  8  1  0
  8  9  1  0
  9 10  2  0
 10 11  1  0
 11 12  2  0
 12 13  1  0
 13 14  2  0
 13 15  1  0
 15 16  1  0
 15 17  1  0
 17 18  2  0
 17 19  1  0
 19 20  1  0
  6 21  1  0
 21 22  2  0
 22  3  1  0
 12  8  1  0
 19 11  1  0
  1 23  1  0
  1 24  1  0
  1 25  1  0
  4 26  1  0
  5 27  1  0
  7 28  1  0
  7 29  1  0
  9 30  1  0
 16 31  1  0
 16 32  1  0
 16 33  1  0
 20 34  1  0
 20 35  1  0
 20 36  1  0
 21 37  1  0
 22 38  1  0
M  END
>  <ligand_id>  (5) 
4

>  <original_smiles>  (5) 
COc1ccc(Cn2cnc3c2c(=O)n(C)c(=O)n3C)cc1

>  <smiles>  (5) 
COc1ccc(Cn2cnc3c2c(=O)n(C)c(=O)n3C)cc1

$$$$
5:0
     RDKit          3D

 54 58  0  0  0  0  0  0  0  0999 V2000
   -0.3689   -0.8264    5.3675 C   0  0  0  0  0  0  0  0  0  0  0  0
   -0.4469   -1.7683    4.3337 C   0  0  0  0  0  0  0  0  0  0  0  0
    0.2343   -1.5534    3.1307 C   0  0  0  0  0  0  0  0  0  0  0  0
    0.9948   -0.3903    2.9656 C   0  0  0  0  0  0  0  0  0  0  0  0
    1.0730    0.5603    4.0086 C   0  0  0  0  0  0  0  0  0  0  0  0
    0.3905    0.3384    5.2067 C   0  0  0  0  0  0  0  0  0  0  0  0
    1.8434    1.7217    3.8093 C   0  0  0  0  0  0  0  0  0  0  0  0
    2.5000    1.9218    2.6276 N   0  0  0  0  0  0  0  0  0  0  0  0
    2.3983    0.9817    1.6543 C   0  0  0  0  0  0  0  0  0  0  0  0
    2.9698    1.0453    0.4397 N   0  0  0  0  0  0  0  0  0  0  0  0
    2.5367   -0.1242   -0.1039 C   0  0  0  0  0  0  0  0  0  0  0  0
    2.8288   -0.5282   -1.5055 C   0  0  0  0  0  0  0  0  0  0  0  0
    1.8079    0.1017   -2.4296 C   0  0  0  0  0  0  0  0  0  0  0  0
    2.0005   -0.4135   -3.8432 C   0  0  0  0  0  0  0  0  0  0  0  0
    0.9406    0.1733   -4.7585 C   0  0  0  0  0  0  0  0  0  0  0  0
   -0.4110   -0.4461   -4.4587 C   0  0  0  0  0  0  0  0  0  0  0  0
   -1.4949    0.3016   -5.2091 C   0  0  0  0  0  0  0  0  0  0  0  0
   -2.8649   -0.1913   -4.7714 C   0  0  0  0  0  0  0  0  0  0  0  0
   -3.3926    0.5958   -3.5756 C   0  0  0  0  0  0  0  0  0  0  0  0
   -2.6724    0.2463   -2.3119 C   0  0  0  0  0  0  0  0  0  0  0  0
   -1.7090    1.0145   -1.7600 N   0  0  0  0  0  0  0  0  0  0  0  0
   -1.1505    0.2971   -0.7903 N   0  0  0  0  0  0  0  0  0  0  0  0
   -1.8230   -0.8682   -0.7479 C   0  0  0  0  0  0  0  0  0  0  0  0
   -2.7571   -0.9340   -1.6786 N   0  0  0  0  0  0  0  0  0  0  0  0
   -3.1293   -2.2470   -2.1500 C   0  0  0  0  0  0  0  0  0  0  0  0
   -2.1166   -3.2225   -1.5252 C   0  0  0  0  0  0  0  0  0  0  0  0
   -1.2291   -2.4110   -0.1236 S   0  0  0  0  0  0  0  0  0  0  0  0
    1.7398   -0.8465    0.7209 N   0  0  0  0  0  0  0  0  0  0  0  0
    1.6749   -0.1267    1.8229 N   0  0  0  0  0  0  0  0  0  0  0  0
   -0.9072   -1.0029    6.3104 H   0  0  0  0  0  0  0  0  0  0  0  0
   -1.0462   -2.6808    4.4682 H   0  0  0  0  0  0  0  0  0  0  0  0
    0.1724   -2.2940    2.3198 H   0  0  0  0  0  0  0  0  0  0  0  0
    0.4495    1.0760    6.0207 H   0  0  0  0  0  0  0  0  0  0  0  0
    1.9173    2.4727    4.6096 H   0  0  0  0  0  0  0  0  0  0  0  0
    3.8368   -0.1870   -1.7840 H   0  0  0  0  0  0  0  0  0  0  0  0
    2.7786   -1.6237   -1.5919 H   0  0  0  0  0  0  0  0  0  0  0  0
    0.7958   -0.1546   -2.0832 H   0  0  0  0  0  0  0  0  0  0  0  0
    1.9393    1.1938   -2.4222 H   0  0  0  0  0  0  0  0  0  0  0  0
    2.9971   -0.1206   -4.2051 H   0  0  0  0  0  0  0  0  0  0  0  0
    1.9110   -1.5099   -3.8434 H   0  0  0  0  0  0  0  0  0  0  0  0
    0.8852    1.2605   -4.6003 H   0  0  0  0  0  0  0  0  0  0  0  0
    1.2099   -0.0407   -5.8033 H   0  0  0  0  0  0  0  0  0  0  0  0
   -0.4082   -1.4998   -4.7746 H   0  0  0  0  0  0  0  0  0  0  0  0
   -0.6078   -0.3843   -3.3782 H   0  0  0  0  0  0  0  0  0  0  0  0
   -1.4096    1.3774   -4.9960 H   0  0  0  0  0  0  0  0  0  0  0  0
   -1.3751    0.1243   -6.2881 H   0  0  0  0  0  0  0  0  0  0  0  0
   -3.5683   -0.0801   -5.6097 H   0  0  0  0  0  0  0  0  0  0  0  0
   -2.7706   -1.2459   -4.4730 H   0  0  0  0  0  0  0  0  0  0  0  0
   -3.2629    1.6702   -3.7726 H   0  0  0  0  0  0  0  0  0  0  0  0
   -4.4543    0.3404   -3.4429 H   0  0  0  0  0  0  0  0  0  0  0  0
   -4.1503   -2.4951   -1.8246 H   0  0  0  0  0  0  0  0  0  0  0  0
   -3.1161   -2.3002   -3.2487 H   0  0  0  0  0  0  0  0  0  0  0  0
   -2.6494   -4.1099   -1.1527 H   0  0  0  0  0  0  0  0  0  0  0  0
   -1.3839   -3.5178   -2.2907 H   0  0  0  0  0  0  0  0  0  0  0  0
  1  2  2  0
  2  3  1  0
  3  4  2  0
  4  5  1  0
  5  6  2  0
  5  7  1  0
  7  8  2  0
  8  9  1  0
  9 10  2  0
 10 11  1  0
 11 12  1  0
 12 13  1  0
 13 14  1  0
 14 15  1  0
 15 16  1  0
 16 17  1  0
 17 18  1  0
 18 19  1  0
 19 20  1  0
 20 21  2  0
 21 22  1  0
 22 23  2  0
 23 24  1  0
 24 25  1  0
 25 26  1  0
 26 27  1  0
 11 28  2  0
 28 29  1  0
  6  1  1  0
 29  9  1  0
 29  4  1  0
 24 20  1  0
 27 23  1  0
  1 30  1  0
  2 31  1  0
  3 32  1  0
  6 33  1  0
  7 34  1  0
 12 35  1  0
 12 36  1  0
 13 37  1  0
 13 38  1  0
 14 39  1  0
 14 40  1  0
 15 41  1  0
 15 42  1  0
 16 43  1  0
 16 44  1  0
 17 45  1  0
 17 46  1  0
 18 47  1  0
 18 48  1  0
 19 49  1  0
 19 50  1  0
 25 51  1  0
 25 52  1  0
 26 53  1  0
 26 54  1  0
M  END
>  <ligand_id>  (6) 
5

>  <original_smiles>  (6) 
c1ccc2c(c1)cnc1nc(CCCCCCCCc3nnc4n3CCS4)nn12

>  <smiles>  (6) 
c1ccc2c(c1)cnc1nc(CCCCCCCCc3nnc4n3CCS4)nn12

$$$$
6:0
     RDKit          3D

 28 30  0  0  0  0  0  0  0  0999 V2000
   -0.3174   -2.2322    0.9953 N   0  0  0  0  0  0  0  0  0  0  0  0
   -0.6999   -1.1182    1.5245 C   0  0  0  0  0  0  0  0  0  0  0  0
   -1.7527   -1.0084    2.3475 N   0  0  0  0  0  0  0  0  0  0  0  0
   -1.6991    0.2153    2.7963 O   0  0  0  0  0  0  0  0  0  0  0  0
   -0.6839    0.9006    2.3440 N   0  0  0  0  0  0  0  0  0  0  0  0
   -0.0172    0.0754    1.5171 C   0  0  0  0  0  0  0  0  0  0  0  0
    1.2414    0.4365    0.8371 C   0  0  0  0  0  0  0  0  0  0  0  0
    2.0895    1.3627    1.3233 N   0  0  0  0  0  0  0  0  0  0  0  0
    3.0623    1.4107    0.3853 C   0  0  0  0  0  0  0  0  0  0  0  0
    2.8115    0.5637   -0.6339 N   0  0  0  0  0  0  0  0  0  0  0  0
    1.6782   -0.0460   -0.3420 N   0  0  0  0  0  0  0  0  0  0  0  0
    0.9832   -0.9276   -1.2702 C   0  0  0  0  0  0  0  0  0  0  0  0
    0.0990   -0.1352   -2.1719 C   0  0  0  0  0  0  0  0  0  0  0  0
    0.6154    0.4234   -3.3464 C   0  0  0  0  0  0  0  0  0  0  0  0
   -0.2081    1.1876   -4.1788 C   0  0  0  0  0  0  0  0  0  0  0  0
   -1.5472    1.3981   -3.8353 C   0  0  0  0  0  0  0  0  0  0  0  0
   -2.0626    0.8461   -2.6585 C   0  0  0  0  0  0  0  0  0  0  0  0
   -1.2393    0.0819   -1.8261 C   0  0  0  0  0  0  0  0  0  0  0  0
    0.5008   -2.2512    0.3699 H   0  0  0  0  0  0  0  0  0  0  0  0
   -2.4502   -1.7311    2.5752 H   0  0  0  0  0  0  0  0  0  0  0  0
    3.9483    2.0598    0.4459 H   0  0  0  0  0  0  0  0  0  0  0  0
    1.7224   -1.4736   -1.8747 H   0  0  0  0  0  0  0  0  0  0  0  0
    0.3673   -1.6366   -0.6975 H   0  0  0  0  0  0  0  0  0  0  0  0
    1.6698    0.2613   -3.6148 H   0  0  0  0  0  0  0  0  0  0  0  0
    0.1974    1.6231   -5.1040 H   0  0  0  0  0  0  0  0  0  0  0  0
   -2.1952    1.9982   -4.4910 H   0  0  0  0  0  0  0  0  0  0  0  0
   -3.1156    1.0131   -2.3877 H   0  0  0  0  0  0  0  0  0  0  0  0
   -1.6441   -0.3491   -0.8985 H   0  0  0  0  0  0  0  0  0  0  0  0
  1  2  2  3
  2  3  1  0
  3  4  1  0
  4  5  1  0
  5  6  2  0
  6  7  1  0
  7  8  2  0
  8  9  1  0
  9 10  2  0
 10 11  1  0
 11 12  1  0
 12 13  1  0
 13 14  2  0
 14 15  1  0
 15 16  2  0
 16 17  1  0
 17 18  2  0
  6  2  1  0
 11  7  1  0
 18 13  1  0
  1 19  1  0
  3 20  1  0
  9 21  1  0
 12 22  1  0
 12 23  1  0
 14 24  1  0
 15 25  1  0
 16 26  1  0
 17 27  1  0
 18 28  1  0
M  END
>  <ligand_id>  (7) 
6

>  <original_smiles>  (7) 
N=c1[nH]onc1-c1ncnn1Cc1ccccc1

>  <smiles>  (7) 
N=c1[nH]onc1-c1ncnn1Cc1ccccc1

$$$$
7:0
     RDKit          3D

 64 68  0  0  0  0  0  0  0  0999 V2000
    0.2398    2.4780    7.1699 C   0  0  0  0  0  0  0  0  0  0  0  0
    0.3068    1.6891    5.8796 C   0  0  0  0  0  0  0  0  0  0  0  0
   -0.6443    0.6340    5.9201 O   0  0  0  0  0  0  0  0  0  0  0  0
   -0.8181   -0.2694    4.8660 C   0  0  0  0  0  0  0  0  0  0  0  0
   -0.0476   -0.1775    3.6951 C   0  0  0  0  0  0  0  0  0  0  0  0
   -0.2311   -1.0894    2.6523 C   0  0  0  0  0  0  0  0  0  0  0  0
    0.5748   -0.9697    1.4078 C   0  0  0  0  0  0  0  0  0  0  0  0
   -0.1304   -0.0579    0.4186 C   0  0  0  0  0  0  0  0  0  0  0  0
    0.6322    0.0279   -0.8237 N   0  0  0  0  0  0  0  0  0  0  0  0
    1.8660    0.7320   -0.9799 C   0  0  0  0  0  0  0  0  0  0  0  0
    2.5782    1.6320    0.1904 S   0  0  0  0  0  0  0  0  0  0  0  0
    2.2032    0.7740   -2.3823 C   0  0  0  0  0  0  0  0  0  0  0  0
    3.2923    1.3639   -3.0231 C   0  0  0  0  0  0  0  0  0  0  0  0
    3.3718    1.2567   -4.4202 C   0  0  0  0  0  0  0  0  0  0  0  0
    2.3732    0.5744   -5.1410 C   0  0  0  0  0  0  0  0  0  0  0  0
    1.2835   -0.0062   -4.4723 C   0  0  0  0  0  0  0  0  0  0  0  0
    1.2175    0.1065   -3.0794 C   0  0  0  0  0  0  0  0  0  0  0  0
    0.1408   -0.4112   -2.1459 C   0  0  0  0  0  0  0  0  0  0  0  0
   -1.2160    0.2363   -2.4174 C   0  0  0  0  0  0  0  0  0  0  0  0
   -2.3949   -0.3635   -1.9387 C   0  0  0  0  0  0  0  0  0  0  0  0
   -3.6347    0.2560   -2.1158 C   0  0  0  0  0  0  0  0  0  0  0  0
   -3.7113    1.4942   -2.7567 C   0  0  0  0  0  0  0  0  0  0  0  0
   -2.5475    2.1169   -3.2125 C   0  0  0  0  0  0  0  0  0  0  0  0
   -1.3079    1.4971   -3.0349 C   0  0  0  0  0  0  0  0  0  0  0  0
    0.1002   -1.9319   -2.2486 C   0  0  0  0  0  0  0  0  0  0  0  0
   -0.5671   -2.5513   -3.3207 C   0  0  0  0  0  0  0  0  0  0  0  0
   -0.5604   -3.9419   -3.4568 C   0  0  0  0  0  0  0  0  0  0  0  0
    0.1277   -4.7307   -2.5324 C   0  0  0  0  0  0  0  0  0  0  0  0
    0.8154   -4.1287   -1.4766 C   0  0  0  0  0  0  0  0  0  0  0  0
    0.8087   -2.7381   -1.3412 C   0  0  0  0  0  0  0  0  0  0  0  0
   -1.1943   -2.0944    2.7676 C   0  0  0  0  0  0  0  0  0  0  0  0
   -1.9644   -2.1929    3.9283 C   0  0  0  0  0  0  0  0  0  0  0  0
   -1.7816   -1.2838    4.9839 C   0  0  0  0  0  0  0  0  0  0  0  0
   -2.5443   -1.3688    6.1539 O   0  0  0  0  0  0  0  0  0  0  0  0
   -3.5393   -2.3637    6.3531 C   0  0  0  0  0  0  0  0  0  0  0  0
    0.2984    1.7883    8.0248 H   0  0  0  0  0  0  0  0  0  0  0  0
    1.0812    3.1854    7.2113 H   0  0  0  0  0  0  0  0  0  0  0  0
   -0.7087    3.0335    7.2113 H   0  0  0  0  0  0  0  0  0  0  0  0
    0.0822    2.3530    5.0318 H   0  0  0  0  0  0  0  0  0  0  0  0
    1.3161    1.2688    5.7586 H   0  0  0  0  0  0  0  0  0  0  0  0
    0.7058    0.6181    3.5983 H   0  0  0  0  0  0  0  0  0  0  0  0
    1.5614   -0.5490    1.6517 H   0  0  0  0  0  0  0  0  0  0  0  0
    0.6953   -1.9663    0.9581 H   0  0  0  0  0  0  0  0  0  0  0  0
   -1.1310   -0.4609    0.2032 H   0  0  0  0  0  0  0  0  0  0  0  0
   -0.2156    0.9476    0.8566 H   0  0  0  0  0  0  0  0  0  0  0  0
    4.0657    1.8972   -2.4508 H   0  0  0  0  0  0  0  0  0  0  0  0
    4.2197    1.7088   -4.9555 H   0  0  0  0  0  0  0  0  0  0  0  0
    2.4473    0.4955   -6.2357 H   0  0  0  0  0  0  0  0  0  0  0  0
    0.4992   -0.5377   -5.0312 H   0  0  0  0  0  0  0  0  0  0  0  0
   -2.3400   -1.3314   -1.4188 H   0  0  0  0  0  0  0  0  0  0  0  0
   -4.5504   -0.2318   -1.7505 H   0  0  0  0  0  0  0  0  0  0  0  0
   -4.6879    1.9789   -2.9023 H   0  0  0  0  0  0  0  0  0  0  0  0
   -2.6067    3.0955   -3.7114 H   0  0  0  0  0  0  0  0  0  0  0  0
   -0.3936    2.0006   -3.3819 H   0  0  0  0  0  0  0  0  0  0  0  0
   -1.0997   -1.9346   -4.0596 H   0  0  0  0  0  0  0  0  0  0  0  0
   -1.0972   -4.4154   -4.2921 H   0  0  0  0  0  0  0  0  0  0  0  0
    0.1280   -5.8259   -2.6359 H   0  0  0  0  0  0  0  0  0  0  0  0
    1.3624   -4.7493   -0.7516 H   0  0  0  0  0  0  0  0  0  0  0  0
    1.3639   -2.2692   -0.5154 H   0  0  0  0  0  0  0  0  0  0  0  0
   -1.3461   -2.8080    1.9445 H   0  0  0  0  0  0  0  0  0  0  0  0
   -2.7196   -2.9878    4.0167 H   0  0  0  0  0  0  0  0  0  0  0  0
   -3.6933   -2.5175    7.4314 H   0  0  0  0  0  0  0  0  0  0  0  0
   -4.4825   -2.0366    5.8911 H   0  0  0  0  0  0  0  0  0  0  0  0
   -3.2125   -3.3069    5.8911 H   0  0  0  0  0  0  0  0  0  0  0  0
  1  2  1  0
  2  3  1  0
  3  4  1  0
  4  5  2  0
  5  6  1  0
  6  7  1  0
  7  8  1  0
  8  9  1  0
  9 10  1  0
 10 11  2  0
 10 12  1  0
 12 13  2  0
 13 14  1  0
 14 15  2  0
 15 16  1  0
 16 17  2  0
 17 18  1  0
 18 19  1  0
 19 20  2  0
 20 21  1  0
 21 22  2  0
 22 23  1  0
 23 24  2  0
 18 25  1  0
 25 26  2  0
 26 27  1  0
 27 28  2  0
 28 29  1  0
 29 30  2  0
  6 31  2  0
 31 32  1  0
 32 33  2  0
 33 34  1  0
 34 35  1  0
 33  4  1  0
 18  9  1  0
 24 19  1  0
 30 25  1  0
 17 12  1  0
  1 36  1  0
  1 37  1  0
  1 38  1  0
  2 39  1  0
  2 40  1  0
  5 41  1  0
  7 42  1  0
  7 43  1  0
  8 44  1  0
  8 45  1  0
 13 46  1  0
 14 47  1  0
 15 48  1  0
 16 49  1  0
 20 50  1  0
 21 51  1  0
 22 52  1  0
 23 53  1  0
 24 54  1  0
 26 55  1  0
 27 56  1  0
 28 57  1  0
 29 58  1  0
 30 59  1  0
 31 60  1  0
 32 61  1  0
 35 62  1  0
 35 63  1  0
 35 64  1  0
M  END
>  <ligand_id>  (8) 
7

>  <original_smiles>  (8) 
CCOc1cc(CCN2C(=S)c3ccccc3C2(c2ccccc2)c2ccccc2)ccc1OC

>  <smiles>  (8) 
CCOc1cc(CCN2C(=S)c3ccccc3C2(c2ccccc2)c2ccccc2)ccc1OC

$$$$
8:0
     RDKit          3D

 58 61  0  0  0  0  0  0  0  0999 V2000
   -1.8685   -2.0209    3.4930 C   0  0  0  0  0  0  0  0  0  0  0  0
   -0.7717   -2.5799    2.7856 O   0  0  0  0  0  0  0  0  0  0  0  0
    0.2114   -1.7837    2.1929 C   0  0  0  0  0  0  0  0  0  0  0  0
    0.1340   -0.4244    2.2622 N   0  0  0  0  0  0  0  0  0  0  0  0
    1.0810    0.3770    1.7073 C   0  0  0  0  0  0  0  0  0  0  0  0
    2.1668   -0.1847    1.0249 C   0  0  0  0  0  0  0  0  0  0  0  0
    3.2189    0.6447    0.5177 N   0  0  0  0  0  0  0  0  0  0  0  0
    3.1520    1.6154   -0.3561 C   0  0  0  0  0  0  0  0  0  0  0  0
    4.2582    2.3955   -0.5059 N   0  0  0  0  0  0  0  0  0  0  0  0
    4.2996    3.4667   -1.3400 C   0  0  0  0  0  0  0  0  0  0  0  0
    3.1855    3.8052   -2.1012 C   0  0  0  0  0  0  0  0  0  0  0  0
    2.0390    3.0205   -2.0175 C   0  0  0  0  0  0  0  0  0  0  0  0
    0.9653    3.3205   -2.7955 N   0  0  0  0  0  0  0  0  0  0  0  0
   -0.1500    2.5448   -2.8071 C   0  0  0  0  0  0  0  0  0  0  0  0
   -0.2211    1.3914   -2.0165 C   0  0  0  0  0  0  0  0  0  0  0  0
   -1.4076    0.5066   -2.0622 C   0  0  0  0  0  0  0  0  0  0  0  0
   -2.5717    0.9074   -2.7385 C   0  0  0  0  0  0  0  0  0  0  0  0
   -3.6839    0.0637   -2.8008 C   0  0  0  0  0  0  0  0  0  0  0  0
   -3.6412   -1.1939   -2.1951 C   0  0  0  0  0  0  0  0  0  0  0  0
   -2.4865   -1.6092   -1.5256 C   0  0  0  0  0  0  0  0  0  0  0  0
   -2.4386   -2.9538   -0.8909 C   0  0  0  0  0  0  0  0  0  0  0  0
   -3.0571   -2.9026    0.4312 N   0  0  0  0  0  0  0  0  0  0  0  0
   -3.3246   -4.2532    0.9333 C   0  0  0  0  0  0  0  0  0  0  0  0
   -2.0510   -5.0698    1.0935 C   0  0  0  0  0  0  0  0  0  0  0  0
   -4.3432   -4.9859    0.0740 C   0  0  0  0  0  0  0  0  0  0  0  0
   -1.3784   -0.7595   -1.4528 C   0  0  0  0  0  0  0  0  0  0  0  0
    0.8711    1.0808   -1.1991 C   0  0  0  0  0  0  0  0  0  0  0  0
    2.0079    1.8979   -1.1577 C   0  0  0  0  0  0  0  0  0  0  0  0
    2.2811   -1.5740    0.9635 C   0  0  0  0  0  0  0  0  0  0  0  0
    1.2951   -2.3824    1.5326 C   0  0  0  0  0  0  0  0  0  0  0  0
    1.4215   -3.8636    1.4445 C   0  0  0  0  0  0  0  0  0  0  0  0
   -1.6915   -2.1111    4.5749 H   0  0  0  0  0  0  0  0  0  0  0  0
   -1.9742   -0.9590    3.2260 H   0  0  0  0  0  0  0  0  0  0  0  0
   -2.7898   -2.5594    3.2260 H   0  0  0  0  0  0  0  0  0  0  0  0
    0.9942    1.4701    1.7945 H   0  0  0  0  0  0  0  0  0  0  0  0
    5.1014    2.1627    0.0379 H   0  0  0  0  0  0  0  0  0  0  0  0
    5.2174    4.0687   -1.4139 H   0  0  0  0  0  0  0  0  0  0  0  0
    3.2104    4.6839   -2.7624 H   0  0  0  0  0  0  0  0  0  0  0  0
   -1.0034    2.8250   -3.4422 H   0  0  0  0  0  0  0  0  0  0  0  0
   -2.6081    1.8941   -3.2234 H   0  0  0  0  0  0  0  0  0  0  0  0
   -4.5931    0.3901   -3.3270 H   0  0  0  0  0  0  0  0  0  0  0  0
   -4.5167   -1.8581   -2.2447 H   0  0  0  0  0  0  0  0  0  0  0  0
   -2.9825   -3.6736   -1.5203 H   0  0  0  0  0  0  0  0  0  0  0  0
   -1.3895   -3.2679   -0.7876 H   0  0  0  0  0  0  0  0  0  0  0  0
   -2.4220   -2.4199    1.0827 H   0  0  0  0  0  0  0  0  0  0  0  0
   -3.7617   -4.1321    1.9354 H   0  0  0  0  0  0  0  0  0  0  0  0
   -1.8359   -5.2077    2.1634 H   0  0  0  0  0  0  0  0  0  0  0  0
   -2.1828   -6.0522    0.6165 H   0  0  0  0  0  0  0  0  0  0  0  0
   -1.2133   -4.5400    0.6165 H   0  0  0  0  0  0  0  0  0  0  0  0
   -5.0644   -5.5048    0.7224 H   0  0  0  0  0  0  0  0  0  0  0  0
   -4.8754   -4.2624   -0.5610 H   0  0  0  0  0  0  0  0  0  0  0  0
   -3.8264   -5.7206   -0.5610 H   0  0  0  0  0  0  0  0  0  0  0  0
   -0.4762   -1.0847   -0.9140 H   0  0  0  0  0  0  0  0  0  0  0  0
    0.8362    0.1754   -0.5755 H   0  0  0  0  0  0  0  0  0  0  0  0
    3.1486   -2.0326    0.4664 H   0  0  0  0  0  0  0  0  0  0  0  0
    1.4579   -4.2894    2.4581 H   0  0  0  0  0  0  0  0  0  0  0  0
    0.5552   -4.2741    0.9052 H   0  0  0  0  0  0  0  0  0  0  0  0
    2.3449   -4.1213    0.9052 H   0  0  0  0  0  0  0  0  0  0  0  0
  1  2  1  0
  2  3  1  0
  3  4  2  0
  4  5  1  0
  5  6  2  0
  6  7  1  0
  7  8  2  3
  8  9  1  0
  9 10  1  0
 10 11  2  0
 11 12  1  0
 12 13  2  0
 13 14  1  0
 14 15  2  0
 15 16  1  0
 16 17  2  0
 17 18  1  0
 18 19  2  0
 19 20  1  0
 20 21  1  0
 21 22  1  0
 22 23  1  0
 23 24  1  0
 23 25  1  0
 20 26  2  0
 15 27  1  0
 27 28  2  0
  6 29  1  0
 29 30  2  0
 30 31  1  0
 30  3  1  0
 28  8  1  0
 28 12  1  0
 26 16  1  0
  1 32  1  0
  1 33  1  0
  1 34  1  0
  5 35  1  0
  9 36  1  0
 10 37  1  0
 11 38  1  0
 14 39  1  0
 17 40  1  0
 18 41  1  0
 19 42  1  0
 21 43  1  0
 21 44  1  0
 22 45  1  0
 23 46  1  0
 24 47  1  0
 24 48  1  0
 24 49  1  0
 25 50  1  0
 25 51  1  0
 25 52  1  0
 26 53  1  0
 27 54  1  0
 29 55  1  0
 31 56  1  0
 31 57  1  0
 31 58  1  0
M  END
>  <ligand_id>  (9) 
8

>  <original_smiles>  (9) 
COc1ncc(N=c2[nH]ccc3ncc(-c4cccc(CNC(C)C)c4)cc23)cc1C

>  <smiles>  (9) 
COc1ncc(N=c2[nH]ccc3ncc(-c4cccc(CNC(C)C)c4)cc23)cc1C

$$$$
9:0
     RDKit          3D

 25 26  0  0  0  0  0  0  0  0999 V2000
   -3.6916    1.9269    0.5068 N   0  0  0  0  0  0  0  0  0  0  0  0
   -3.0740    1.5134    1.7547 C   0  0  0  0  0  0  0  0  0  0  0  0
   -2.6774    0.0487    1.6785 C   0  0  0  0  0  0  0  0  0  0  0  0
   -1.5641   -0.1268    0.7604 N   0  0  0  0  0  0  0  0  0  0  0  0
   -1.6926   -0.4727   -0.5078 N   0  0  0  0  0  0  0  0  0  0  0  0
   -0.4920   -0.5073   -1.0627 N   0  0  0  0  0  0  0  0  0  0  0  0
    0.3618   -0.1621   -0.0750 C   0  0  0  0  0  0  0  0  0  0  0  0
    1.8273   -0.0590   -0.2248 C   0  0  0  0  0  0  0  0  0  0  0  0
    2.6005    0.3146    0.8845 C   0  0  0  0  0  0  0  0  0  0  0  0
    3.9895    0.4226    0.7806 C   0  0  0  0  0  0  0  0  0  0  0  0
    4.6207    0.1576   -0.4359 C   0  0  0  0  0  0  0  0  0  0  0  0
    3.8630   -0.2153   -1.5482 C   0  0  0  0  0  0  0  0  0  0  0  0
    2.4721   -0.3252   -1.4504 C   0  0  0  0  0  0  0  0  0  0  0  0
    1.7691   -0.6898   -2.5514 F   0  0  0  0  0  0  0  0  0  0  0  0
   -0.2985    0.0839    1.0751 N   0  0  0  0  0  0  0  0  0  0  0  0
   -4.5308    2.4888    0.7088 H   0  0  0  0  0  0  0  0  0  0  0  0
   -3.0231    2.4914   -0.0366 H   0  0  0  0  0  0  0  0  0  0  0  0
   -2.1777    2.1243    1.9374 H   0  0  0  0  0  0  0  0  0  0  0  0
   -3.7929    1.6502    2.5759 H   0  0  0  0  0  0  0  0  0  0  0  0
   -2.3806   -0.2992    2.6789 H   0  0  0  0  0  0  0  0  0  0  0  0
   -3.5357   -0.5354    1.3149 H   0  0  0  0  0  0  0  0  0  0  0  0
    2.1083    0.5245    1.8456 H   0  0  0  0  0  0  0  0  0  0  0  0
    4.5855    0.7164    1.6572 H   0  0  0  0  0  0  0  0  0  0  0  0
    5.7143    0.2425   -0.5184 H   0  0  0  0  0  0  0  0  0  0  0  0
    4.3625   -0.4236   -2.5058 H   0  0  0  0  0  0  0  0  0  0  0  0
  1  2  1  0
  2  3  1  0
  3  4  1  0
  4  5  1  0
  5  6  2  0
  6  7  1  0
  7  8  1  0
  8  9  2  0
  9 10  1  0
 10 11  2  0
 11 12  1  0
 12 13  2  0
 13 14  1  0
  7 15  2  0
 15  4  1  0
 13  8  1  0
  1 16  1  0
  1 17  1  0
  2 18  1  0
  2 19  1  0
  3 20  1  0
  3 21  1  0
  9 22  1  0
 10 23  1  0
 11 24  1  0
 12 25  1  0
M  END
>  <ligand_id>  (10) 
9

>  <original_smiles>  (10) 
NCCn1nnc(-c2ccccc2F)n1

>  <smiles>  (10) 
NCCn1nnc(-c2ccccc2F)n1

$$$$
10:0
     RDKit          3D

 45 47  0  0  0  0  0  0  0  0999 V2000
    0.7620   -1.9141    6.0006 C   0  0  0  0  0  0  0  0  0  0  0  0
    1.8164   -2.2401    5.0523 N   0  0  0  0  0  0  0  0  0  0  0  0
    2.7144   -3.3328    5.3941 C   0  0  0  0  0  0  0  0  0  0  0  0
    1.9656   -1.5084    3.8210 C   0  0  0  0  0  0  0  0  0  0  0  0
    1.0906   -0.4564    3.5044 C   0  0  0  0  0  0  0  0  0  0  0  0
    1.2356    0.2535    2.3099 C   0  0  0  0  0  0  0  0  0  0  0  0
    2.2620   -0.0768    1.4126 C   0  0  0  0  0  0  0  0  0  0  0  0
    2.4341    0.6561    0.1151 C   0  0  0  0  0  0  0  0  0  0  0  0
    2.6069    2.1036    0.3140 C   0  0  0  0  0  0  0  0  0  0  0  0
    2.7430    3.2422    0.4703 N   0  0  0  0  0  0  0  0  0  0  0  0
    1.3430    0.3462   -0.8666 C   0  0  0  0  0  0  0  0  0  0  0  0
    1.6388   -0.4399   -1.9843 C   0  0  0  0  0  0  0  0  0  0  0  0
    0.6383   -0.7554   -2.9080 C   0  0  0  0  0  0  0  0  0  0  0  0
   -0.6690   -0.2898   -2.7290 C   0  0  0  0  0  0  0  0  0  0  0  0
   -1.6384   -0.6497   -3.6796 O   0  0  0  0  0  0  0  0  0  0  0  0
   -2.9378   -0.1311   -3.8059 C   0  0  0  0  0  0  0  0  0  0  0  0
   -3.8281   -0.7788   -4.6703 C   0  0  0  0  0  0  0  0  0  0  0  0
   -5.1282   -0.2951   -4.8450 C   0  0  0  0  0  0  0  0  0  0  0  0
   -5.5472    0.8467   -4.1575 C   0  0  0  0  0  0  0  0  0  0  0  0
   -4.6654    1.5056   -3.2973 C   0  0  0  0  0  0  0  0  0  0  0  0
   -3.3661    1.0204   -3.1242 C   0  0  0  0  0  0  0  0  0  0  0  0
   -0.9659    0.4896   -1.5992 C   0  0  0  0  0  0  0  0  0  0  0  0
    0.0319    0.8068   -0.6744 C   0  0  0  0  0  0  0  0  0  0  0  0
    3.1335   -1.1256    1.7197 C   0  0  0  0  0  0  0  0  0  0  0  0
    2.9878   -1.8352    2.9148 C   0  0  0  0  0  0  0  0  0  0  0  0
    1.1420   -2.0316    7.0261 H   0  0  0  0  0  0  0  0  0  0  0  0
    0.4387   -0.8741    5.8462 H   0  0  0  0  0  0  0  0  0  0  0  0
   -0.0919   -2.5902    5.8462 H   0  0  0  0  0  0  0  0  0  0  0  0
    2.7860   -3.4199    6.4883 H   0  0  0  0  0  0  0  0  0  0  0  0
    2.3242   -4.2725    4.9762 H   0  0  0  0  0  0  0  0  0  0  0  0
    3.7119   -3.1320    4.9762 H   0  0  0  0  0  0  0  0  0  0  0  0
    0.2842   -0.1890    4.2030 H   0  0  0  0  0  0  0  0  0  0  0  0
    0.5426    1.0741    2.0722 H   0  0  0  0  0  0  0  0  0  0  0  0
    3.3683    0.2840   -0.3306 H   0  0  0  0  0  0  0  0  0  0  0  0
    2.6627   -0.8114   -2.1373 H   0  0  0  0  0  0  0  0  0  0  0  0
    0.8809   -1.3754   -3.7836 H   0  0  0  0  0  0  0  0  0  0  0  0
   -3.5021   -1.6761   -5.2167 H   0  0  0  0  0  0  0  0  0  0  0  0
   -5.8213   -0.8136   -5.5238 H   0  0  0  0  0  0  0  0  0  0  0  0
   -6.5706    1.2266   -4.2934 H   0  0  0  0  0  0  0  0  0  0  0  0
   -4.9935    2.4056   -2.7566 H   0  0  0  0  0  0  0  0  0  0  0  0
   -2.6734    1.5442   -2.4490 H   0  0  0  0  0  0  0  0  0  0  0  0
   -1.9920    0.8531   -1.4413 H   0  0  0  0  0  0  0  0  0  0  0  0
   -0.2110    1.4192    0.2065 H   0  0  0  0  0  0  0  0  0  0  0  0
    3.9371   -1.3935    1.0180 H   0  0  0  0  0  0  0  0  0  0  0  0
    3.6803   -2.6574    3.1480 H   0  0  0  0  0  0  0  0  0  0  0  0
  1  2  1  0
  2  3  1  0
  2  4  1  0
  4  5  2  0
  5  6  1  0
  6  7  2  0
  7  8  1  0
  8  9  1  0
  9 10  3  0
  8 11  1  0
 11 12  2  0
 12 13  1  0
 13 14  2  0
 14 15  1  0
 15 16  1  0
 16 17  2  0
 17 18  1  0
 18 19  2  0
 19 20  1  0
 20 21  2  0
 14 22  1  0
 22 23  2  0
  7 24  1  0
 24 25  2  0
 25  4  1  0
 23 11  1  0
 21 16  1  0
  1 26  1  0
  1 27  1  0
  1 28  1  0
  3 29  1  0
  3 30  1  0
  3 31  1  0
  5 32  1  0
  6 33  1  0
  8 34  1  0
 12 35  1  0
 13 36  1  0
 17 37  1  0
 18 38  1  0
 19 39  1  0
 20 40  1  0
 21 41  1  0
 22 42  1  0
 23 43  1  0
 24 44  1  0
 25 45  1  0
M  END
>  <ligand_id>  (11) 
10

>  <original_smiles>  (11) 
CN(C)c1ccc(C(C#N)c2ccc(Oc3ccccc3)cc2)cc1

>  <smiles>  (11) 
CN(C)c1ccc(C(C#N)c2ccc(Oc3ccccc3)cc2)cc1

$$$$
11:0
     RDKit          3D

 52 54  0  0  0  0  0  0  0  0999 V2000
   -1.8038    2.5365    0.8267 C   0  0  0  0  0  0  0  0  0  0  0  0
   -1.1842    1.3025    1.3892 C   0  0  0  0  0  0  0  0  0  0  0  0
   -1.9132    0.4895    2.0169 O   0  0  0  0  0  0  0  0  0  0  0  0
    0.2729    1.0733    1.3083 C   0  0  0  0  0  0  0  0  0  0  0  0
    0.9159    0.6263    2.4722 C   0  0  0  0  0  0  0  0  0  0  0  0
    2.3021    0.4790    2.5155 C   0  0  0  0  0  0  0  0  0  0  0  0
    3.0683    0.7815    1.3923 C   0  0  0  0  0  0  0  0  0  0  0  0
    2.4452    1.2041    0.2180 C   0  0  0  0  0  0  0  0  0  0  0  0
    1.0500    1.3429    0.1477 C   0  0  0  0  0  0  0  0  0  0  0  0
    0.4638    1.6279   -1.1813 C   0  0  0  0  0  0  0  0  0  0  0  0
    1.1390    2.2552   -2.0426 O   0  0  0  0  0  0  0  0  0  0  0  0
   -0.8174    1.0894   -1.5308 N   0  0  0  0  0  0  0  0  0  0  0  0
   -1.3016    0.8546   -2.8914 C   0  0  0  0  0  0  0  0  0  0  0  0
   -0.2807    0.0435   -3.6750 C   0  0  0  0  0  0  0  0  0  0  0  0
   -1.4921    2.1975   -3.6012 C   0  0  0  0  0  0  0  0  0  0  0  0
   -2.3840    3.0105   -2.8972 O   0  0  0  0  0  0  0  0  0  0  0  0
   -2.6054    0.0731   -2.8643 C   0  0  0  0  0  0  0  0  0  0  0  0
   -3.3861    0.1667   -3.8500 O   0  0  0  0  0  0  0  0  0  0  0  0
   -3.0190   -0.7555   -1.7591 N   0  0  0  0  0  0  0  0  0  0  0  0
   -2.2841   -1.4681   -0.9540 C   0  0  0  0  0  0  0  0  0  0  0  0
   -0.9148   -1.6512   -1.0282 C   0  0  0  0  0  0  0  0  0  0  0  0
   -0.6632   -2.4378    0.0817 C   0  0  0  0  0  0  0  0  0  0  0  0
    0.6710   -2.8480    0.5483 C   0  0  0  0  0  0  0  0  0  0  0  0
    0.8062   -3.6257    1.7067 C   0  0  0  0  0  0  0  0  0  0  0  0
    2.0749   -3.9858    2.1707 C   0  0  0  0  0  0  0  0  0  0  0  0
    3.2164   -3.5666    1.4818 C   0  0  0  0  0  0  0  0  0  0  0  0
    3.0892   -2.7891    0.3278 C   0  0  0  0  0  0  0  0  0  0  0  0
    4.5169   -2.2544   -0.5308 Cl  0  0  0  0  0  0  0  0  0  0  0  0
    1.8214   -2.4306   -0.1369 C   0  0  0  0  0  0  0  0  0  0  0  0
   -1.8076   -2.7167    0.7362 N   0  0  0  0  0  0  0  0  0  0  0  0
   -2.8028   -2.1275    0.0959 N   0  0  0  0  0  0  0  0  0  0  0  0
   -2.1317    3.1896    1.6488 H   0  0  0  0  0  0  0  0  0  0  0  0
   -1.0657    3.0681    0.2081 H   0  0  0  0  0  0  0  0  0  0  0  0
   -2.6710    2.2621    0.2081 H   0  0  0  0  0  0  0  0  0  0  0  0
    0.3177    0.3884    3.3642 H   0  0  0  0  0  0  0  0  0  0  0  0
    2.7897    0.1243    3.4355 H   0  0  0  0  0  0  0  0  0  0  0  0
    4.1635    0.6873    1.4312 H   0  0  0  0  0  0  0  0  0  0  0  0
    3.0569    1.4324   -0.6672 H   0  0  0  0  0  0  0  0  0  0  0  0
   -1.4525    0.8467   -0.7571 H   0  0  0  0  0  0  0  0  0  0  0  0
    0.3836   -0.4844   -2.9750 H   0  0  0  0  0  0  0  0  0  0  0  0
   -0.8026   -0.6891   -4.3084 H   0  0  0  0  0  0  0  0  0  0  0  0
    0.3149    0.7173   -4.3084 H   0  0  0  0  0  0  0  0  0  0  0  0
   -0.5203    2.7076   -3.6741 H   0  0  0  0  0  0  0  0  0  0  0  0
   -1.9034    2.0101   -4.6041 H   0  0  0  0  0  0  0  0  0  0  0  0
   -2.2471    2.8857   -1.9246 H   0  0  0  0  0  0  0  0  0  0  0  0
   -0.2068   -1.2689   -1.7783 H   0  0  0  0  0  0  0  0  0  0  0  0
   -0.0901   -3.9542    2.2532 H   0  0  0  0  0  0  0  0  0  0  0  0
    2.1748   -4.5993    3.0783 H   0  0  0  0  0  0  0  0  0  0  0  0
    4.2146   -3.8487    1.8479 H   0  0  0  0  0  0  0  0  0  0  0  0
    1.7248   -1.8175   -1.0451 H   0  0  0  0  0  0  0  0  0  0  0  0
   -1.8923   -3.2898    1.5879 H   0  0  0  0  0  0  0  0  0  0  0  0
   -3.7987   -2.1667    0.3555 H   0  0  0  0  0  0  0  0  0  0  0  0
  1  2  1  0
  2  3  2  0
  2  4  1  0
  4  5  2  0
  5  6  1  0
  6  7  2  0
  7  8  1  0
  8  9  2  0
  9 10  1  0
 10 11  2  0
 10 12  1  0
 12 13  1  0
 13 14  1  0
 13 15  1  0
 15 16  1  0
 13 17  1  0
 17 18  2  0
 17 19  1  0
 19 20  2  3
 20 21  1  0
 21 22  2  0
 22 23  1  0
 23 24  2  0
 24 25  1  0
 25 26  2  0
 26 27  1  0
 27 28  1  0
 27 29  2  0
 22 30  1  0
 30 31  1  0
  9  4  1  0
 31 20  1  0
 29 23  1  0
  1 32  1  0
  1 33  1  0
  1 34  1  0
  5 35  1  0
  6 36  1  0
  7 37  1  0
  8 38  1  0
 12 39  1  0
 14 40  1  0
 14 41  1  0
 14 42  1  0
 15 43  1  0
 15 44  1  0
 16 45  1  0
 21 46  1  0
 24 47  1  0
 25 48  1  0
 26 49  1  0
 29 50  1  0
 30 51  1  0
 31 52  1  0
M  END
>  <ligand_id>  (12) 
11

>  <original_smiles>  (12) 
CC(=O)c1ccccc1C(=O)NC(C)(CO)C(=O)N=c1cc(-c2cccc(Cl)c2)[nH][nH]1

>  <smiles>  (12) 
CC(=O)c1ccccc1C(=O)NC(C)(CO)C(=O)N=c1cc(-c2cccc(Cl)c2)[nH][nH]1

$$$$
12:0
     RDKit          3D

 36 37  0  0  0  0  0  0  0  0999 V2000
   -3.7326   -0.3925    4.7594 C   0  0  0  0  0  0  0  0  0  0  0  0
   -2.9008    0.5448    4.0893 O   0  0  0  0  0  0  0  0  0  0  0  0
   -2.1015    0.1988    2.9964 C   0  0  0  0  0  0  0  0  0  0  0  0
   -2.0731   -1.1097    2.4889 C   0  0  0  0  0  0  0  0  0  0  0  0
   -1.2616   -1.4236    1.3952 C   0  0  0  0  0  0  0  0  0  0  0  0
   -0.4652   -0.4419    0.7965 C   0  0  0  0  0  0  0  0  0  0  0  0
    0.3173   -0.8045   -0.3115 O   0  0  0  0  0  0  0  0  0  0  0  0
    1.3489   -0.0531   -0.9030 C   0  0  0  0  0  0  0  0  0  0  0  0
    1.9428    1.0407   -0.2508 C   0  0  0  0  0  0  0  0  0  0  0  0
    2.9765    1.7573   -0.8581 C   0  0  0  0  0  0  0  0  0  0  0  0
    3.4319    1.3862   -2.1241 C   0  0  0  0  0  0  0  0  0  0  0  0
    4.5293    2.1495   -2.7729 C   0  0  0  0  0  0  0  0  0  0  0  0
    2.8564    0.2963   -2.7802 C   0  0  0  0  0  0  0  0  0  0  0  0
    1.8237   -0.4283   -2.1738 C   0  0  0  0  0  0  0  0  0  0  0  0
    1.2182   -1.5797   -2.9093 C   0  0  0  0  0  0  0  0  0  0  0  0
    0.0491   -1.1276   -3.7160 C   0  0  0  0  0  0  0  0  0  0  0  0
   -1.1115   -1.1932   -3.2341 O   0  0  0  0  0  0  0  0  0  0  0  0
    0.2431   -0.6010   -4.9859 O   0  0  0  0  0  0  0  0  0  0  0  0
   -0.5026    0.8678    1.3014 C   0  0  0  0  0  0  0  0  0  0  0  0
   -1.3131    1.1839    2.3950 C   0  0  0  0  0  0  0  0  0  0  0  0
   -3.6226   -0.2686    5.8469 H   0  0  0  0  0  0  0  0  0  0  0  0
   -4.7813   -0.2212    4.4751 H   0  0  0  0  0  0  0  0  0  0  0  0
   -3.4376   -1.4134    4.4751 H   0  0  0  0  0  0  0  0  0  0  0  0
   -2.6920   -1.8911    2.9539 H   0  0  0  0  0  0  0  0  0  0  0  0
   -1.2491   -2.4509    1.0021 H   0  0  0  0  0  0  0  0  0  0  0  0
    1.5899    1.3356    0.7484 H   0  0  0  0  0  0  0  0  0  0  0  0
    3.4314    2.6137   -0.3388 H   0  0  0  0  0  0  0  0  0  0  0  0
    5.1718    2.5964   -2.0000 H   0  0  0  0  0  0  0  0  0  0  0  0
    5.1270    1.4712   -3.3995 H   0  0  0  0  0  0  0  0  0  0  0  0
    4.1013    2.9458   -3.3995 H   0  0  0  0  0  0  0  0  0  0  0  0
    3.2162    0.0059   -3.7783 H   0  0  0  0  0  0  0  0  0  0  0  0
    1.9724   -2.0181   -3.5793 H   0  0  0  0  0  0  0  0  0  0  0  0
    0.8780   -2.3287   -2.1790 H   0  0  0  0  0  0  0  0  0  0  0  0
   -0.5337   -0.3009   -5.5213 H   0  0  0  0  0  0  0  0  0  0  0  0
    0.1110    1.6512    0.8324 H   0  0  0  0  0  0  0  0  0  0  0  0
   -1.3307    2.2126    2.7843 H   0  0  0  0  0  0  0  0  0  0  0  0
  1  2  1  0
  2  3  1  0
  3  4  2  0
  4  5  1  0
  5  6  2  0
  6  7  1  0
  7  8  1  0
  8  9  2  0
  9 10  1  0
 10 11  2  0
 11 12  1  0
 11 13  1  0
 13 14  2  0
 14 15  1  0
 15 16  1  0
 16 17  2  0
 16 18  1  0
  6 19  1  0
 19 20  2  0
 20  3  1  0
 14  8  1  0
  1 21  1  0
  1 22  1  0
  1 23  1  0
  4 24  1  0
  5 25  1  0
  9 26  1  0
 10 27  1  0
 12 28  1  0
 12 29  1  0
 12 30  1  0
 13 31  1  0
 15 32  1  0
 15 33  1  0
 18 34  1  0
 19 35  1  0
 20 36  1  0
M  END
>  <ligand_id>  (13) 
12

>  <original_smiles>  (13) 
COc1ccc(Oc2ccc(C)cc2CC(=O)O)cc1

>  <smiles>  (13) 
COc1ccc(Oc2ccc(C)cc2CC(=O)O)cc1

$$$$
13:0
     RDKit          3D

 58 62  0  0  0  0  0  0  0  0999 V2000
   -3.7496   -0.4017    6.3348 C   0  0  0  0  0  0  0  0  0  0  0  0
   -2.8076   -0.4219    5.1858 C   0  0  0  0  0  0  0  0  0  0  0  0
   -1.8399    0.5781    5.0576 C   0  0  0  0  0  0  0  0  0  0  0  0
   -0.9542    0.5581    3.9763 C   0  0  0  0  0  0  0  0  0  0  0  0
   -1.0309   -0.4619    3.0155 C   0  0  0  0  0  0  0  0  0  0  0  0
   -0.1392   -0.5189    1.8949 N   0  0  0  0  0  0  0  0  0  0  0  0
    0.9112    0.4049    1.5773 C   0  0  0  0  0  0  0  0  0  0  0  0
    1.1035    1.4233    2.2956 O   0  0  0  0  0  0  0  0  0  0  0  0
    1.7328    0.1940    0.4142 N   0  0  0  0  0  0  0  0  0  0  0  0
    2.3255    1.3294   -0.2589 C   0  0  0  0  0  0  0  0  0  0  0  0
    1.3032    2.0381   -1.0860 C   0  0  0  0  0  0  0  0  0  0  0  0
    1.3725    3.2922   -1.1515 O   0  0  0  0  0  0  0  0  0  0  0  0
    0.2792    1.3704   -1.8431 N   0  0  0  0  0  0  0  0  0  0  0  0
   -0.0370   -0.0056   -1.9058 N   0  0  0  0  0  0  0  0  0  0  0  0
   -1.0083   -0.5538   -2.6683 C   0  0  0  0  0  0  0  0  0  0  0  0
   -1.9395    0.1787   -3.5558 C   0  0  0  0  0  0  0  0  0  0  0  0
   -2.8839   -0.5358   -4.3080 C   0  0  0  0  0  0  0  0  0  0  0  0
   -3.7754    0.1343   -5.1510 C   0  0  0  0  0  0  0  0  0  0  0  0
   -3.7308    1.5271   -5.2488 C   0  0  0  0  0  0  0  0  0  0  0  0
   -2.7951    2.2487   -4.5037 C   0  0  0  0  0  0  0  0  0  0  0  0
   -2.7461    3.7303   -4.6058 C   0  0  0  0  0  0  0  0  0  0  0  0
   -1.9047    1.5769   -3.6615 C   0  0  0  0  0  0  0  0  0  0  0  0
   -1.0288   -1.8947   -2.5310 N   0  0  0  0  0  0  0  0  0  0  0  0
   -0.0704   -2.2170   -1.6757 N   0  0  0  0  0  0  0  0  0  0  0  0
    0.5183   -1.0700   -1.2821 C   0  0  0  0  0  0  0  0  0  0  0  0
    1.7141   -1.0241   -0.3799 C   0  0  0  0  0  0  0  0  0  0  0  0
    2.0262   -2.2624    0.4212 C   0  0  0  0  0  0  0  0  0  0  0  0
    1.0195   -3.0651    0.9817 C   0  0  0  0  0  0  0  0  0  0  0  0
    1.3533   -4.1893    1.7417 C   0  0  0  0  0  0  0  0  0  0  0  0
    2.6954   -4.5167    1.9509 C   0  0  0  0  0  0  0  0  0  0  0  0
    3.7028   -3.7189    1.4016 C   0  0  0  0  0  0  0  0  0  0  0  0
    5.0038   -4.0340    1.6072 F   0  0  0  0  0  0  0  0  0  0  0  0
    3.3681   -2.5939    0.6422 C   0  0  0  0  0  0  0  0  0  0  0  0
   -2.0023   -1.4598    3.1521 C   0  0  0  0  0  0  0  0  0  0  0  0
   -2.8887   -1.4411    4.2331 C   0  0  0  0  0  0  0  0  0  0  0  0
   -3.1803   -0.4139    7.2759 H   0  0  0  0  0  0  0  0  0  0  0  0
   -4.3637    0.5098    6.2895 H   0  0  0  0  0  0  0  0  0  0  0  0
   -4.4022   -1.2860    6.2895 H   0  0  0  0  0  0  0  0  0  0  0  0
   -1.7752    1.3806    5.8072 H   0  0  0  0  0  0  0  0  0  0  0  0
   -0.1931    1.3461    3.8780 H   0  0  0  0  0  0  0  0  0  0  0  0
   -0.2664   -1.3094    1.2469 H   0  0  0  0  0  0  0  0  0  0  0  0
    2.7297    2.0248    0.4914 H   0  0  0  0  0  0  0  0  0  0  0  0
    3.1312    0.9725   -0.9173 H   0  0  0  0  0  0  0  0  0  0  0  0
   -0.3095    1.9841   -2.4242 H   0  0  0  0  0  0  0  0  0  0  0  0
   -2.9232   -1.6326   -4.2339 H   0  0  0  0  0  0  0  0  0  0  0  0
   -4.5119   -0.4351   -5.7371 H   0  0  0  0  0  0  0  0  0  0  0  0
   -4.4318    2.0551   -5.9120 H   0  0  0  0  0  0  0  0  0  0  0  0
   -2.7316    4.1671   -3.5963 H   0  0  0  0  0  0  0  0  0  0  0  0
   -1.8375    4.0306   -5.1483 H   0  0  0  0  0  0  0  0  0  0  0  0
   -3.6328    4.0900   -5.1483 H   0  0  0  0  0  0  0  0  0  0  0  0
   -1.1702    2.1498   -3.0764 H   0  0  0  0  0  0  0  0  0  0  0  0
    2.5634   -1.0028   -1.0786 H   0  0  0  0  0  0  0  0  0  0  0  0
   -0.0378   -2.8074    0.8217 H   0  0  0  0  0  0  0  0  0  0  0  0
    0.5599   -4.8162    2.1748 H   0  0  0  0  0  0  0  0  0  0  0  0
    2.9591   -5.4021    2.5480 H   0  0  0  0  0  0  0  0  0  0  0  0
    4.1639   -1.9655    0.2158 H   0  0  0  0  0  0  0  0  0  0  0  0
   -2.0689   -2.2639    2.4045 H   0  0  0  0  0  0  0  0  0  0  0  0
   -3.6500   -2.2287    4.3338 H   0  0  0  0  0  0  0  0  0  0  0  0
  1  2  1  0
  2  3  2  0
  3  4  1  0
  4  5  2  0
  5  6  1  0
  6  7  1  0
  7  8  2  0
  7  9  1  0
  9 10  1  0
 10 11  1  0
 11 12  2  0
 11 13  1  0
 13 14  1  0
 14 15  1  0
 15 16  1  0
 16 17  2  0
 17 18  1  0
 18 19  2  0
 19 20  1  0
 20 21  1  0
 20 22  2  0
 15 23  2  0
 23 24  1  0
 24 25  2  0
 25 26  1  0
 26 27  1  0
 27 28  2  0
 28 29  1  0
 29 30  2  0
 30 31  1  0
 31 32  1  0
 31 33  2  0
  5 34  1  0
 34 35  2  0
 35  2  1  0
 26  9  1  0
 33 27  1  0
 25 14  1  0
 22 16  1  0
  1 36  1  0
  1 37  1  0
  1 38  1  0
  3 39  1  0
  4 40  1  0
  6 41  1  0
 10 42  1  0
 10 43  1  0
 13 44  1  0
 17 45  1  0
 18 46  1  0
 19 47  1  0
 21 48  1  0
 21 49  1  0
 21 50  1  0
 22 51  1  0
 26 52  1  0
 28 53  1  0
 29 54  1  0
 30 55  1  0
 33 56  1  0
 34 57  1  0
 35 58  1  0
M  END
>  <ligand_id>  (14) 
13

>  <original_smiles>  (14) 
Cc1ccc(NC(=O)N2CC(=O)Nn3c(-c4cccc(C)c4)nnc3C2c2cccc(F)c2)cc1

>  <smiles>  (14) 
Cc1ccc(NC(=O)N2CC(=O)Nn3c(-c4cccc(C)c4)nnc3C2c2cccc(F)c2)cc1

$$$$
