0:0:0
     RDKit          3D

 14 14  0  0  0  0  0  0  0  0999 V2000
   22.5980   -9.6970   34.6550 C   0  0  0  0  0  0  0  0  0  0  0  0
   23.6520  -10.1720   35.4550 C   0  0  0  0  0  3  0  0  0  0  0  0
   24.9820   -9.9810   35.0800 C   0  0  0  0  0  3  0  0  0  0  0  0
   25.2800   -9.3110   33.8960 C   0  0  0  0  0  3  0  0  0  0  0  0
   24.2470   -8.8320   33.0890 C   0  0  0  0  0  3  0  0  0  0  0  0
   22.9030   -9.0160   33.4510 C   0  0  0  0  0  0  0  0  0  0  0  0
   21.8520   -8.4850   32.5520 C   0  0  0  0  0  0  0  0  0  0  0  0
   21.2140   -7.4440   32.8710 O   0  0  0  0  0  0  0  0  0  0  0  0
   21.5460   -9.1120   31.3500 O   0  0  0  0  0  0  0  0  0  0  0  0
   21.8810  -10.0270   31.1700 H   0  0  0  0  0  0  0  0  0  0  0  0
   21.2560   -9.8870   35.0280 O   0  0  0  0  0  0  0  0  0  0  0  0
   20.5030  -10.1350   37.3880 C   0  0  0  0  0  1  0  0  0  0  0  0
   20.7800  -10.7220   36.0510 C   0  0  0  0  0  0  0  0  0  0  0  0
   20.5820  -11.9520   35.8690 O   0  0  0  0  0  0  0  0  0  0  0  0
  1 11  1  0
  1  2  2  0
  3  2  1  0
  4  3  2  0
  5  6  2  0
  5  4  1  0
  6  1  1  0
  7  8  2  0
  7  6  1  0
  9  7  1  0
 10  9  1  0
 11 13  1  0
 13 12  1  0
 14 13  2  0
M  RAD  5   2   2   3   2   4   2   5   2  12   2
M  END
>  <MODEL>  (1) 
1

>  <TORSDO>  (1) 
F 4

>  <SCORE>  (1) 
-5.9

>  <ligand_id>  (1) 
0

>  <original_smiles>  (1) 
CC(=O)Oc1ccccc1C(=O)O

>  <smiles>  (1) 
CC(=O)Oc1ccccc1C(=O)O

$$$$
