0:0:0
     RDKit          3D

 14 14  0  0  0  0  0  0  0  0999 V2000
    9.4780   -9.7500  -35.1260 C   0  0  0  0  0  0  0  0  0  0  0  0
    9.1910  -10.9320  -34.4210 C   0  0  0  0  0  3  0  0  0  0  0  0
    9.5140  -12.1810  -34.9500 C   0  0  0  0  0  3  0  0  0  0  0  0
   10.1310  -12.2700  -36.1960 C   0  0  0  0  0  3  0  0  0  0  0  0
   10.4240  -11.1080  -36.9100 C   0  0  0  0  0  3  0  0  0  0  0  0
   10.1050   -9.8420  -36.3930 C   0  0  0  0  0  0  0  0  0  0  0  0
   10.4410   -8.6450  -37.2000 C   0  0  0  0  0  0  0  0  0  0  0  0
   11.5880   -8.1280  -37.1150 O   0  0  0  0  0  0  0  0  0  0  0  0
    9.5130   -8.0710  -38.0590 O   0  0  0  0  0  0  0  0  0  0  0  0
    9.7970   -7.7480  -38.9510 H   0  0  0  0  0  0  0  0  0  0  0  0
    9.1540   -8.4880  -34.5970 O   0  0  0  0  0  0  0  0  0  0  0  0
    7.2550   -8.0870  -33.0400 C   0  0  0  0  0  1  0  0  0  0  0  0
    8.7130   -8.2130  -33.2940 C   0  0  0  0  0  0  0  0  0  0  0  0
    9.5170   -8.0710  -32.3360 O   0  0  0  0  0  0  0  0  0  0  0  0
  1 11  1  0
  1  2  2  0
  3  2  1  0
  4  3  2  0
  5  6  2  0
  5  4  1  0
  6  1  1  0
  7  8  2  0
  7  6  1  0
  9  7  1  0
 10  9  1  0
 11 13  1  0
 13 12  1  0
 13 14  2  0
M  RAD  5   2   2   3   2   4   2   5   2  12   2
M  END
>  <MODEL>  (1) 
1

>  <TORSDO>  (1) 
F 4

>  <SCORE>  (1) 
-3.1

>  <ligand_id>  (1) 
0

>  <original_smiles>  (1) 
CC(=O)Oc1ccccc1C(=O)O

>  <smiles>  (1) 
CC(=O)Oc1ccccc1C(=O)O

$$$$
